<?xml version="1.0" encoding="UTF-8"?>

<!-- generated on 12/16/25 13:20:02 by Eclipse SUMO polyconvert Version 1.5.0
<configuration xmlns:xsi="http://www.w3.org/2001/XMLSchema-instance" xsi:noNamespaceSchemaLocation="http://sumo.dlr.de/xsd/polyconvertConfiguration.xsd">

    <input>
        <net-file value="hepberg.net.xml"/>
        <osm-files value="hepberg_raw.osm"/>
    </input>

    <output>
        <output-file value="hepberg.poly.xml"/>
    </output>

    <processing>
        <poi-layer-offset value="5"/>
    </processing>

</configuration>
-->

<additional xmlns:xsi="http://www.w3.org/2001/XMLSchema-instance" xsi:noNamespaceSchemaLocation="http://sumo.dlr.de/xsd/additional_file.xsd">
    <location netOffset="-678525.70,-5410008.36" convBoundary="0.00,0.00,3150.14,3599.19" origBoundary="11.432821,48.816774,11.475886,48.849207" projParameter="+proj=utm +zone=32 +ellps=WGS84 +datum=WGS84 +units=m +no_defs"/>

    <poly id="1182250545" type="building" color="255,230,230" fill="1" layer="-1.00" shape="2460.530380,738.072105 2473.873630,736.446214 2472.466480,725.007065 2465.614129,725.841967 2465.247592,722.870438 2451.262561,724.575688 2452.320545,733.188508 2459.814636,732.274253 2460.530380,738.072105"/>
    <poly id="1192290267" type="building" color="255,230,230" fill="1" layer="-1.00" shape="1503.091083,754.886321 1518.397152,733.839143 1552.764779,758.691142 1537.458635,779.738228 1503.091083,754.886321"/>
    <poly id="1243553748" type="building" color="255,230,230" fill="1" layer="-1.00" shape="1735.348778,674.202737 1727.952313,673.007093 1729.629801,662.691426 1737.018941,663.886835 1735.348778,674.202737"/>
    <poly id="1243553749" type="building" color="255,230,230" fill="1" layer="-1.00" shape="1718.210885,663.657988 1712.897320,662.574105 1714.328062,655.577269 1719.634295,656.660915 1718.210885,663.657988"/>
    <poly id="1243553750" type="building" color="255,230,230" fill="1" layer="-1.00" shape="1803.987938,610.595098 1814.004420,612.109110 1814.880262,606.373909 1804.863770,604.859896 1803.987938,610.595098"/>
    <poly id="1243553751" type="building" color="255,230,230" fill="1" layer="-1.00" shape="1778.826013,618.739336 1778.508645,620.831982 1770.999871,619.699416 1771.568872,615.957059 1772.708310,608.427886 1780.224080,609.571805 1778.826013,618.739336"/>
    <poly id="1243553752" type="building" color="255,230,230" fill="1" layer="-1.00" shape="1780.427224,618.980188 1778.826013,618.739336 1780.224080,609.571805 1780.729150,606.216809 1788.742561,607.421314 1786.839047,619.954954 1786.115326,619.842572 1780.427224,618.980188"/>
    <poly id="1243553753" type="building" color="255,230,230" fill="1" layer="-1.00" shape="1780.427224,618.980188 1779.392914,625.756159 1785.088347,626.618779 1786.115326,619.842572 1780.427224,618.980188"/>
    <poly id="1243553754" type="building" color="255,230,230" fill="1" layer="-1.00" shape="1763.255994,614.698404 1771.568872,615.957059 1770.999871,619.699416 1770.430871,623.441773 1762.118004,622.183119 1762.593868,619.049707 1763.255994,614.698404"/>
    <poly id="1382568075" type="building" color="255,230,230" fill="1" layer="-1.00" shape="1452.815827,553.658271 1460.102651,559.856876 1467.500063,551.227589 1460.213593,545.017859 1452.815827,553.658271"/>
    <poly id="1436627571" type="building" color="255,230,230" fill="1" layer="-1.00" shape="1578.372651,264.236774 1587.838598,265.754839 1589.961395,252.560647 1580.488086,251.042342 1578.372651,264.236774"/>
    <poly id="1436627572" type="building" color="255,230,230" fill="1" layer="-1.00" shape="1582.062975,240.256031 1595.156058,242.536415 1597.075420,231.549816 1583.982311,229.269427 1582.062975,240.256031"/>
    <poly id="1436627573" type="building" color="255,230,230" fill="1" layer="-1.00" shape="1398.001844,597.598988 1403.808850,599.788849 1405.790367,593.699813 1403.796962,590.809480 1400.414965,589.743637 1398.001844,597.598988"/>
    <poly id="1436634384" type="building" color="255,230,230" fill="1" layer="-1.00" shape="2612.235105,308.679147 2658.532165,292.356351 2650.198065,268.864939 2603.900845,285.187807 2612.235105,308.679147"/>
    <poly id="1436634385" type="building" color="255,230,230" fill="1" layer="-1.00" shape="2457.315592,440.790348 2468.961128,437.840965 2466.594059,428.584888 2454.948505,431.534277 2457.315592,440.790348"/>
    <poly id="1436634386" type="building" color="255,230,230" fill="1" layer="-1.00" shape="2388.029338,463.056893 2401.382413,459.105677 2397.651044,446.601005 2384.297582,450.563345 2388.029338,463.056893"/>
    <poly id="1436634387" type="building" color="255,230,230" fill="1" layer="-1.00" shape="2404.565157,457.929252 2414.465746,455.090119 2411.408217,444.465393 2401.507972,447.293417 2404.565157,457.929252"/>
    <poly id="1436634388" type="building" color="255,230,230" fill="1" layer="-1.00" shape="2441.013216,498.564832 2436.390571,492.028421 2421.119537,502.793572 2425.742549,509.318855 2441.013216,498.564832"/>
    <poly id="1436635795" type="building" color="255,230,230" fill="1" layer="-1.00" shape="2326.964299,1495.986959 2330.907974,1505.316339 2342.890480,1500.285952 2338.954158,1490.956801 2326.964299,1495.986959"/>
    <poly id="1436635796" type="building" color="255,230,230" fill="1" layer="-1.00" shape="2369.660276,1523.139326 2364.205784,1510.790181 2353.937122,1515.297476 2359.391631,1527.646611 2369.660276,1523.139326"/>
    <poly id="1436635797" type="building" color="255,230,230" fill="1" layer="-1.00" shape="2354.640968,1529.395309 2349.186452,1517.046179 2338.917814,1521.553501 2344.372347,1533.902620 2354.640968,1529.395309"/>
    <poly id="175540880" type="building" color="255,230,230" fill="1" layer="-1.00" shape="2019.955152,357.381907 2017.087124,369.506015 2029.877157,372.511991 2032.752551,360.388126 2019.955152,357.381907"/>
    <poly id="175540881" type="building" color="255,230,230" fill="1" layer="-1.00" shape="2088.843916,333.529135 2087.420717,343.229873 2099.881904,345.045969 2101.312106,335.356585 2088.843916,333.529135"/>
    <poly id="202164586" type="building" color="255,230,230" fill="1" layer="-1.00" shape="2782.812566,2174.038968 2785.908150,2164.214634 2820.082275,2174.916022 2816.929133,2184.927622 2811.482970,2183.226329 2808.624324,2192.312869 2800.349598,2189.729701 2803.273430,2180.444996 2782.812566,2174.038968"/>
    <poly id="222172632" type="building" color="255,230,230" fill="1" layer="-1.00" shape="2600.275256,277.359548 2646.572526,261.036648 2638.238318,237.545257 2591.940888,253.868230 2600.275256,277.359548"/>
    <poly id="223582667" type="building" color="255,230,230" fill="1" layer="-1.00" shape="1849.537163,147.304498 1864.009504,146.470149 1863.340761,135.099601 1848.868391,135.933953 1849.537163,147.304498"/>
    <poly id="223582668" type="building" color="255,230,230" fill="1" layer="-1.00" shape="1875.781983,147.785035 1892.685448,147.207314 1892.319614,136.469625 1875.416117,137.047348 1875.781983,147.785035"/>
    <poly id="223582669" type="building" color="255,230,230" fill="1" layer="-1.00" shape="1926.884691,110.716049 1943.609654,109.754409 1942.761472,95.073497 1926.036825,96.024025 1926.884691,110.716049"/>
    <poly id="223582670" type="building" color="255,230,230" fill="1" layer="-1.00" shape="1898.504792,147.206164 1912.792414,146.176824 1912.110869,136.797482 1897.815884,137.826587 1898.504792,147.206164"/>
    <poly id="223582671" type="building" color="255,230,230" fill="1" layer="-1.00" shape="1924.441724,145.618594 1940.210344,145.371521 1940.045091,134.796075 1924.276800,135.032035 1924.441724,145.618594"/>
    <poly id="223880727" type="building" color="255,230,230" fill="1" layer="-1.00" shape="1581.978640,604.620413 1583.045793,594.540939 1588.842785,595.217483 1589.539931,589.320727 1582.996828,588.542232 1582.530515,592.521568 1571.466921,591.352502 1569.849658,606.643640 1581.425899,607.862619 1581.156545,610.746794 1587.331768,611.313146 1587.904333,605.178717 1581.978640,604.620413"/>
    <poly id="223880728" type="building" color="255,230,230" fill="1" layer="-1.00" shape="1901.525539,638.824837 1897.342744,637.988719 1895.732301,645.992221 1910.762735,648.992464 1912.366219,640.977614 1908.993421,640.312305 1910.341371,633.157059 1914.365936,633.887936 1915.731649,626.410598 1899.779430,623.514078 1898.413379,631.002533 1902.847152,631.802256 1901.525539,638.824837"/>
    <poly id="223880729" type="building" color="255,230,230" fill="1" layer="-1.00" shape="1721.414865,602.410372 1720.787120,607.063202 1717.130202,606.322081 1716.023385,611.704917 1722.621546,613.052794 1723.572223,608.410388 1733.461996,609.753268 1734.915050,599.107691 1731.564750,598.654620 1732.297735,594.383486 1718.779841,592.089017 1717.147343,601.694047 1721.414865,602.410372"/>
    <poly id="223880730" type="building" color="255,230,230" fill="1" layer="-1.00" shape="1900.580888,672.607545 1917.993476,675.551268 1920.225283,662.416311 1902.812654,659.472581 1900.580888,672.607545"/>
    <poly id="223880731" type="building" color="255,230,230" fill="1" layer="-1.00" shape="1731.253259,156.481094 1747.781082,155.701665 1747.179691,142.920265 1730.644491,143.699460 1731.253259,156.481094"/>
    <poly id="223880732" type="building" color="255,230,230" fill="1" layer="-1.00" shape="1549.839731,256.351533 1557.054001,257.518779 1562.615928,258.432476 1564.225298,248.626395 1551.449079,246.545449 1549.839731,256.351533"/>
    <poly id="223880733" type="building" color="255,230,230" fill="1" layer="-1.00" shape="1830.514168,653.020131 1832.397228,644.079674 1824.690731,642.473338 1822.808042,651.402682 1830.514168,653.020131"/>
    <poly id="223880734" type="building" color="255,230,230" fill="1" layer="-1.00" shape="1786.473624,549.134623 1793.842882,550.040170 1794.745503,542.792639 1787.368896,541.886854 1786.473624,549.134623"/>
    <poly id="223880735" type="building" color="255,230,230" fill="1" layer="-1.00" shape="1722.520768,667.157287 1724.459004,657.640012 1719.634295,656.660915 1718.210885,663.657988 1717.696067,666.178192 1722.520768,667.157287"/>
    <poly id="223880736" type="building" color="255,230,230" fill="1" layer="-1.00" shape="1628.167334,600.803103 1644.174035,602.243037 1645.304445,589.751180 1629.297708,588.311244 1628.167334,600.803103"/>
    <poly id="223880737" type="building" color="255,230,230" fill="1" layer="-1.00" shape="1843.622365,147.758799 1843.384371,137.837475 1835.552956,138.029610 1835.463379,134.432885 1822.585457,134.584454 1822.532478,138.955424 1818.999446,138.919219 1819.052297,147.521643 1843.622365,147.758799"/>
    <poly id="223880738" type="building" color="255,230,230" fill="1" layer="-1.00" shape="1599.448200,520.623291 1605.124251,521.407210 1605.857902,516.201470 1600.174865,515.406198 1599.448200,520.623291"/>
    <poly id="223880739" type="building" color="255,230,230" fill="1" layer="-1.00" shape="1984.052425,88.574912 2003.493290,90.883389 2005.095808,77.449953 1985.662236,75.141709 1984.052425,88.574912"/>
    <poly id="223880740" type="building" color="255,230,230" fill="1" layer="-1.00" shape="1929.282300,719.531717 1929.061217,722.962641 1933.298960,723.233115 1933.520046,719.802190 1929.282300,719.531717"/>
    <poly id="223880741" type="building" color="255,230,230" fill="1" layer="-1.00" shape="1977.895010,130.634084 1979.246542,121.554093 1970.764129,120.289690 1969.412252,129.380798 1977.895010,130.634084"/>
    <poly id="223880742" type="building" color="255,230,230" fill="1" layer="-1.00" shape="1874.185873,664.344523 1876.652730,653.709469 1868.061994,651.729585 1865.595153,662.364643 1874.185873,664.344523"/>
    <poly id="223880743" type="building" color="255,230,230" fill="1" layer="-1.00" shape="1858.502931,116.996430 1867.886706,116.743203 1867.653457,108.268465 1858.261969,108.532570 1858.502931,116.996430"/>
    <poly id="223880744" type="building" color="255,230,230" fill="1" layer="-1.00" shape="1842.082293,560.321235 1845.469308,560.775558 1846.346504,554.317186 1842.959486,553.862863 1842.082293,560.321235"/>
    <poly id="223880745" type="building" color="255,230,230" fill="1" layer="-1.00" shape="1693.874999,673.309064 1710.341744,676.878067 1712.540809,666.790635 1696.074393,663.210511 1693.874999,673.309064"/>
    <poly id="223880746" type="building" color="255,230,230" fill="1" layer="-1.00" shape="1809.406243,698.067997 1815.175510,699.144439 1816.142051,694.012994 1810.365439,692.936314 1809.406243,698.067997"/>
    <poly id="223880747" type="building" color="255,230,230" fill="1" layer="-1.00" shape="1663.694176,541.021215 1677.706847,542.786315 1679.354348,529.754829 1665.341644,527.989725 1663.694176,541.021215"/>
    <poly id="223880748" type="building" color="255,230,230" fill="1" layer="-1.00" shape="1742.424659,613.870091 1756.052779,615.934525 1756.482612,613.088913 1756.967607,609.900164 1757.798799,604.408297 1749.646650,603.177105 1749.936607,601.250470 1745.820343,600.628018 1745.538444,602.532660 1744.178708,602.321867 1742.424659,613.870091"/>
    <poly id="223880749" type="building" color="255,230,230" fill="1" layer="-1.00" shape="2054.832950,171.741161 2060.762777,172.867524 2062.030546,166.154769 2056.100353,165.039519 2054.832950,171.741161"/>
    <poly id="223880750" type="building" color="255,230,230" fill="1" layer="-1.00" shape="1526.327995,257.262400 1539.532770,259.268097 1541.237201,248.107658 1528.039739,246.102194 1526.327995,257.262400"/>
    <poly id="223880751" type="building" color="255,230,230" fill="1" layer="-1.00" shape="1507.042655,563.506320 1515.762836,555.097762 1509.910645,549.067725 1501.190465,557.476292 1507.042655,563.506320"/>
    <poly id="223880752" type="building" color="255,230,230" fill="1" layer="-1.00" shape="1429.504124,528.339921 1433.582414,523.987421 1430.051476,520.702613 1425.973187,525.055116 1429.504124,528.339921"/>
    <poly id="223880754" type="building" color="255,230,230" fill="1" layer="-1.00" shape="1818.158116,149.272994 1818.139827,138.235001 1799.894613,138.268936 1799.912937,149.306928 1818.158116,149.272994"/>
    <poly id="223880755" type="building" color="255,230,230" fill="1" layer="-1.00" shape="1573.694073,580.386950 1590.505448,582.620400 1592.036853,571.131723 1575.225443,568.898269 1573.694073,580.386950"/>
    <poly id="223880756" type="building" color="255,230,230" fill="1" layer="-1.00" shape="1473.644090,252.793600 1483.282289,254.439428 1484.903508,244.945253 1475.264934,243.310538 1473.644090,252.793600"/>
    <poly id="223880757" type="building" color="255,230,230" fill="1" layer="-1.00" shape="1388.937365,443.395809 1397.315793,434.875920 1388.405090,426.166165 1380.026664,434.686067 1388.937365,443.395809"/>
    <poly id="223880758" type="building" color="255,230,230" fill="1" layer="-1.00" shape="1932.514791,734.311957 1936.624731,734.444786 1936.740041,730.876926 1932.630099,730.744097 1932.514791,734.311957"/>
    <poly id="223880759" type="building" color="255,230,230" fill="1" layer="-1.00" shape="1481.061082,320.614288 1495.573963,323.062604 1497.426699,312.084959 1482.913788,309.636639 1481.061082,320.614288"/>
    <poly id="223880760" type="building" color="255,230,230" fill="1" layer="-1.00" shape="1518.228439,574.559427 1516.462931,583.971059 1530.178158,586.527304 1531.943689,577.115676 1518.228439,574.559427"/>
    <poly id="223880761" type="building" color="255,230,230" fill="1" layer="-1.00" shape="1708.568965,616.626959 1712.281885,617.681421 1713.781076,612.433640 1710.068152,611.379177 1708.568965,616.626959"/>
    <poly id="223880762" type="building" color="255,230,230" fill="1" layer="-1.00" shape="2014.496579,176.000261 2015.497487,169.812940 2011.082498,169.102768 2010.081595,175.290089 2014.496579,176.000261"/>
    <poly id="223880763" type="building" color="255,230,230" fill="1" layer="-1.00" shape="1644.146437,174.287469 1661.680106,173.529113 1661.119528,160.615533 1643.585819,161.373892 1644.146437,174.287469"/>
    <poly id="223880765" type="building" color="255,230,230" fill="1" layer="-1.00" shape="1377.568822,469.243274 1369.186770,461.685468 1364.509872,466.830956 1372.898902,474.400106 1377.568822,469.243274"/>
    <poly id="223880766" type="building" color="255,230,230" fill="1" layer="-1.00" shape="1875.941102,563.395501 1876.818367,552.842609 1870.978189,552.364648 1870.100935,562.917541 1875.941102,563.395501"/>
    <poly id="223880767" type="building" color="255,230,230" fill="1" layer="-1.00" shape="1475.014801,236.025826 1481.752203,236.943948 1482.635976,230.496883 1475.891226,229.578523 1475.014801,236.025826"/>
    <poly id="223880768" type="building" color="255,230,230" fill="1" layer="-1.00" shape="1767.674321,155.598376 1767.027823,140.801636 1751.944322,141.449611 1752.590860,156.246349 1767.674321,155.598376"/>
    <poly id="223880769" type="building" color="255,230,230" fill="1" layer="-1.00" shape="1819.912296,652.800097 1822.779681,637.949919 1812.126562,635.903513 1809.258846,650.764810 1819.912296,652.800097"/>
    <poly id="223880770" type="building" color="255,230,230" fill="1" layer="-1.00" shape="1793.599462,558.488388 1810.097574,560.868154 1811.656042,550.148109 1795.150560,547.768102 1793.599462,558.488388"/>
    <poly id="223880771" type="building" color="255,230,230" fill="1" layer="-1.00" shape="1735.348778,674.202737 1747.415644,676.149998 1749.232323,664.937590 1737.165433,662.990325 1737.018941,663.886835 1735.348778,674.202737"/>
    <poly id="223880772" type="building" color="255,230,230" fill="1" layer="-1.00" shape="1635.233522,624.307516 1650.315401,625.717632 1651.456366,613.582161 1636.374454,612.172042 1635.233522,624.307516"/>
    <poly id="223880773" type="building" color="255,230,230" fill="1" layer="-1.00" shape="1648.093527,587.560259 1656.285113,588.481034 1656.991297,582.306414 1648.792363,581.385402 1648.093527,587.560259"/>
    <poly id="223880774" type="building" color="255,230,230" fill="1" layer="-1.00" shape="1786.790813,150.196161 1792.995610,149.862428 1792.177878,134.681855 1785.973065,135.015589 1786.790813,150.196161"/>
    <poly id="223880775" type="building" color="255,230,230" fill="1" layer="-1.00" shape="1903.947370,558.870662 1901.689875,576.666769 1918.600190,578.793144 1920.857381,561.008158 1903.947370,558.870662"/>
    <poly id="223880776" type="building" color="255,230,230" fill="1" layer="-1.00" shape="1918.867534,721.709719 1926.931104,722.493249 1927.392012,717.779409 1919.328794,716.984763 1918.867534,721.709719"/>
    <poly id="223880777" type="building" color="255,230,230" fill="1" layer="-1.00" shape="1997.316741,134.666526 2000.151533,119.025382 1988.653715,116.940264 1985.818955,132.581413 1997.316741,134.666526"/>
    <poly id="223880778" type="building" color="255,230,230" fill="1" layer="-1.00" shape="2008.524097,172.102086 2010.974564,157.894958 2002.637060,156.468291 2000.186973,170.664307 2008.524097,172.102086"/>
    <poly id="223880779" type="building" color="255,230,230" fill="1" layer="-1.00" shape="1671.085494,161.671427 1687.851965,160.098422 1686.717083,148.134301 1669.957559,149.718662 1671.085494,161.671427"/>
    <poly id="223880780" type="building" color="255,230,230" fill="1" layer="-1.00" shape="1474.968174,596.018357 1482.014962,598.493046 1483.623472,593.949702 1476.576679,591.475011 1474.968174,596.018357"/>
    <poly id="223880781" type="building" color="255,230,230" fill="1" layer="-1.00" shape="1436.312134,491.719886 1441.746849,486.087065 1438.133548,482.621577 1432.699192,488.243286 1436.312134,491.719886"/>
    <poly id="223880782" type="building" color="255,230,230" fill="1" layer="-1.00" shape="1861.728670,596.927599 1863.871726,584.034541 1848.839260,581.546185 1846.696238,594.439248 1861.728670,596.927599"/>
    <poly id="223880783" type="building" color="255,230,230" fill="1" layer="-1.00" shape="1809.348276,691.445902 1820.270486,693.801414 1823.389509,679.348789 1812.474251,677.004624 1809.348276,691.445902"/>
    <poly id="223880784" type="building" color="255,230,230" fill="1" layer="-1.00" shape="1637.350425,537.745649 1653.407556,540.132971 1655.553083,525.782382 1639.495911,523.395055 1637.350425,537.745649"/>
    <poly id="223880785" type="building" color="255,230,230" fill="1" layer="-1.00" shape="1667.396781,554.236472 1665.579341,565.704780 1680.513098,568.067061 1682.323588,556.587405 1667.396781,554.236472"/>
    <poly id="223880786" type="building" color="255,230,230" fill="1" layer="-1.00" shape="1579.242974,530.441510 1595.877109,532.480103 1597.461760,519.568966 1580.827228,517.541484 1579.242974,530.441510"/>
    <poly id="223880787" type="building" color="255,230,230" fill="1" layer="-1.00" shape="2059.679666,181.822666 2070.240036,183.354681 2071.277819,176.256191 2060.710096,174.723936 2059.679666,181.822666"/>
    <poly id="223880788" type="building" color="255,230,230" fill="1" layer="-1.00" shape="1532.436867,232.324859 1543.537335,233.739776 1544.891056,223.202234 1533.790567,221.787315 1532.436867,232.324859"/>
    <poly id="223880789" type="building" color="255,230,230" fill="1" layer="-1.00" shape="1788.605468,644.657015 1799.280235,646.715202 1801.368899,635.956645 1790.694470,633.887339 1788.605468,644.657015"/>
    <poly id="223880790" type="building" color="255,230,230" fill="1" layer="-1.00" shape="2076.586529,130.698185 2078.035931,119.051166 2069.685800,118.013419 2068.983514,123.598435 2061.738852,122.685458 2060.984420,128.747227 2076.586529,130.698185"/>
    <poly id="223880791" type="building" color="255,230,230" fill="1" layer="-1.00" shape="1796.331453,122.098477 1795.759780,110.675448 1785.574673,111.169958 1786.146008,122.604100 1796.331453,122.098477"/>
    <poly id="223880792" type="building" color="255,230,230" fill="1" layer="-1.00" shape="1422.344483,523.436118 1430.205498,515.923234 1421.859764,507.242747 1413.998749,514.755643 1422.344483,523.436118"/>
    <poly id="223880793" type="building" color="255,230,230" fill="1" layer="-1.00" shape="1897.426870,600.595498 1915.006275,602.476451 1916.559775,588.051161 1898.980325,586.170204 1897.426870,600.595498"/>
    <poly id="223880794" type="building" color="255,230,230" fill="1" layer="-1.00" shape="1484.363574,583.982067 1482.369750,591.817526 1495.953909,595.248447 1497.947752,587.412992 1484.363574,583.982067"/>
    <poly id="223880795" type="building" color="255,230,230" fill="1" layer="-1.00" shape="1721.137592,155.965455 1729.220873,155.480878 1728.678814,146.551133 1720.595161,147.046826 1721.137592,155.965455"/>
    <poly id="223880796" type="building" color="255,230,230" fill="1" layer="-1.00" shape="1758.117409,580.886214 1778.110708,582.188207 1778.777423,572.006810 1758.791426,570.705052 1758.117409,580.886214"/>
    <poly id="223880797" type="building" color="255,230,230" fill="1" layer="-1.00" shape="1835.763308,591.727304 1843.957904,592.781969 1844.946188,585.158911 1836.751581,584.104244 1835.763308,591.727304"/>
    <poly id="223880798" type="building" color="255,230,230" fill="1" layer="-1.00" shape="1787.441995,692.062503 1791.740002,678.182005 1782.450332,675.322947 1778.159686,689.203688 1787.441995,692.062503"/>
    <poly id="223880799" type="building" color="255,230,230" fill="1" layer="-1.00" shape="1664.960691,623.809159 1684.944871,625.388693 1685.868214,613.624500 1665.890972,612.056315 1664.960691,623.809159"/>
    <poly id="223880800" type="building" color="255,230,230" fill="1" layer="-1.00" shape="1628.774345,524.373187 1631.891434,524.996692 1633.011973,519.414012 1629.894881,518.790506 1628.774345,524.373187"/>
    <poly id="223880801" type="building" color="255,230,230" fill="1" layer="-1.00" shape="1527.510863,462.582341 1526.376489,472.926684 1540.118699,474.426801 1541.253098,464.082459 1527.510863,462.582341"/>
    <poly id="223880802" type="building" color="255,230,230" fill="1" layer="-1.00" shape="1634.017901,559.512635 1647.466640,561.448617 1649.075120,550.307355 1635.625996,548.382485 1634.017901,559.512635"/>
    <poly id="223880803" type="building" color="255,230,230" fill="1" layer="-1.00" shape="1938.164012,719.551727 1938.014574,724.175496 1942.124522,724.308329 1942.273963,719.684560 1938.164012,719.551727"/>
    <poly id="223880804" type="building" color="255,230,230" fill="1" layer="-1.00" shape="1974.723956,150.770573 1976.229154,141.027962 1968.310870,139.815173 1966.806045,149.546671 1974.723956,150.770573"/>
    <poly id="223880805" type="building" color="255,230,230" fill="1" layer="-1.00" shape="2035.689016,177.074825 2050.986200,179.816965 2052.552446,171.144479 2037.255238,168.402336 2035.689016,177.074825"/>
    <poly id="223880806" type="building" color="255,230,230" fill="1" layer="-1.00" shape="1575.435242,182.396473 1587.695271,180.666720 1586.146606,169.679534 1573.886913,171.398177 1575.435242,182.396473"/>
    <poly id="223880807" type="building" color="255,230,230" fill="1" layer="-1.00" shape="1511.617134,590.479527 1520.025638,592.875778 1521.822913,586.580561 1513.406703,584.195185 1511.617134,590.479527"/>
    <poly id="223880808" type="building" color="255,230,230" fill="1" layer="-1.00" shape="2106.155625,168.115837 2108.006536,155.869853 2100.738312,154.778038 2098.887776,167.012909 2106.155625,168.115837"/>
    <poly id="223880809" type="building" color="255,230,230" fill="1" layer="-1.00" shape="1398.513691,502.818769 1405.565947,510.144629 1414.086621,501.996522 1407.034364,494.670652 1398.513691,502.818769"/>
    <poly id="223880810" type="building" color="255,230,230" fill="1" layer="-1.00" shape="1868.934558,558.540554 1869.568748,551.417875 1864.257365,550.945877 1863.630522,558.068794 1868.934558,558.540554"/>
    <poly id="223880811" type="building" color="255,230,230" fill="1" layer="-1.00" shape="1858.338529,702.552533 1859.672575,694.006026 1845.988112,691.872748 1844.653727,700.430373 1858.338529,702.552533"/>
    <poly id="223880812" type="building" color="255,230,230" fill="1" layer="-1.00" shape="1742.052366,623.126375 1739.451105,636.794647 1758.831639,640.457854 1761.432947,626.789590 1742.052366,623.126375"/>
    <poly id="223880813" type="building" color="255,230,230" fill="1" layer="-1.00" shape="1703.198201,159.503262 1720.963777,158.619055 1720.273585,144.944684 1702.515664,145.818015 1703.198201,159.503262"/>
    <poly id="223880814" type="building" color="255,230,230" fill="1" layer="-1.00" shape="2078.941961,189.188183 2085.511357,190.758062 2086.895758,184.983703 2080.319015,183.413586 2078.941961,189.188183"/>
    <poly id="223880815" type="building" color="255,230,230" fill="1" layer="-1.00" shape="1476.582803,228.410291 1486.617753,230.057784 1488.097723,221.070870 1478.070096,219.423612 1476.582803,228.410291"/>
    <poly id="223880816" type="building" color="255,230,230" fill="1" layer="-1.00" shape="1769.495271,151.540392 1786.790813,150.196161 1786.037650,140.525247 1768.734739,141.869244 1769.495271,151.540392"/>
    <poly id="223880817" type="building" color="255,230,230" fill="1" layer="-1.00" shape="1394.587935,546.674835 1401.695813,553.412787 1409.657017,545.068628 1402.542155,538.319314 1394.587935,546.674835"/>
    <poly id="223880818" type="building" color="255,230,230" fill="1" layer="-1.00" shape="1932.685418,729.032413 1940.092761,729.661238 1940.491015,725.067764 1933.084025,724.427824 1932.685418,729.032413"/>
    <poly id="223880819" type="building" color="255,230,230" fill="1" layer="-1.00" shape="1779.329797,577.198430 1778.966149,582.772150 1787.038185,583.299832 1787.401841,577.726113 1779.329797,577.198430"/>
    <poly id="223880820" type="building" color="255,230,230" fill="1" layer="-1.00" shape="1611.082363,612.290686 1609.467109,624.555503 1624.128115,626.486039 1625.743760,614.210111 1611.082363,612.290686"/>
    <poly id="223880821" type="building" color="255,230,230" fill="1" layer="-1.00" shape="1672.696667,585.572560 1672.245797,590.665031 1679.257009,591.280715 1679.707526,586.199360 1672.696667,585.572560"/>
    <poly id="223880822" type="building" color="255,230,230" fill="1" layer="-1.00" shape="1842.104152,647.441854 1839.793120,657.803793 1853.747701,660.902650 1856.059117,650.529601 1842.104152,647.441854"/>
    <poly id="223880823" type="building" color="255,230,230" fill="1" layer="-1.00" shape="2006.330735,131.987144 2016.126414,133.538838 2018.009314,121.661042 2012.038055,120.678032 2008.222031,120.076238 2006.330735,131.987144"/>
    <poly id="223880824" type="building" color="255,230,230" fill="1" layer="-1.00" shape="1992.047263,172.893519 1993.389268,164.336164 1985.215918,163.059473 1983.873926,171.616829 1992.047263,172.893519"/>
    <poly id="223880825" type="building" color="255,230,230" fill="1" layer="-1.00" shape="1856.659794,115.824257 1856.315699,103.273672 1844.078238,103.612777 1844.422719,116.152247 1856.659794,115.824257"/>
    <poly id="223880826" type="building" color="255,230,230" fill="1" layer="-1.00" shape="1431.369853,488.000171 1439.522029,478.749839 1430.218881,470.594806 1422.059371,479.844915 1431.369853,488.000171"/>
    <poly id="223880827" type="building" color="255,230,230" fill="1" layer="-1.00" shape="1848.718006,568.468718 1863.906631,570.672829 1865.577333,559.210948 1850.396375,556.995955 1848.718006,568.468718"/>
    <poly id="223880828" type="building" color="255,230,230" fill="1" layer="-1.00" shape="1841.434964,679.531107 1840.301984,685.947837 1848.615620,687.406915 1849.748610,680.990186 1841.434964,679.531107"/>
    <poly id="223880829" type="building" color="255,230,230" fill="1" layer="-1.00" shape="1762.593868,619.049707 1763.255994,614.698404 1763.825707,610.933816 1756.967607,609.900164 1756.482612,613.088913 1758.303288,613.359098 1757.556451,618.286240 1762.593868,619.049707"/>
    <poly id="223880830" type="building" color="255,230,230" fill="1" layer="-1.00" shape="2086.575434,191.026130 2106.080869,194.961535 2107.881566,186.085240 2088.376101,182.149829 2086.575434,191.026130"/>