<?xml version="1.0" encoding="UTF-8"?>

<!-- generated on 12/16/25 13:19:36 by Eclipse SUMO netconvert Version 1.5.0
<configuration xmlns:xsi="http://www.w3.org/2001/XMLSchema-instance" xsi:noNamespaceSchemaLocation="http://sumo.dlr.de/xsd/netconvertConfiguration.xsd">

    <input>
        <osm-files value="hepberg_raw.osm"/>
    </input>

    <output>
        <output-file value="hepberg.net.xml"/>
    </output>

    <projection>
        <proj.utm value="true"/>
    </projection>

    <tls_building>
        <tls.discard-simple value="true"/>
    </tls_building>

    <edge_removal>
        <keep-edges.by-vclass value="passenger"/>
        <remove-edges.isolated value="true"/>
    </edge_removal>

    <junctions>
        <no-turnarounds.tls value="true"/>
        <junctions.join value="true"/>
    </junctions>

    <report>
        <aggregate-warnings value="5"/>
    </report>

</configuration>
-->

<net version="1.3" junctionCornerDetail="5" limitTurnSpeed="5.50" xmlns:xsi="http://www.w3.org/2001/XMLSchema-instance" xsi:noNamespaceSchemaLocation="http://sumo.dlr.de/xsd/net_file.xsd">

    <location netOffset="-678525.70,-5410008.36" convBoundary="0.00,0.00,2925.13,3599.19" origBoundary="11.432821,48.816774,11.475886,48.849207" projParameter="+proj=utm +zone=32 +ellps=WGS84 +datum=WGS84 +units=m +no_defs"/>

    <type id="highway.bridleway" priority="1" numLanes="1" speed="2.78" allow="pedestrian" oneway="1" width="2.00"/>
    <type id="highway.bus_guideway" priority="1" numLanes="1" speed="27.78" allow="bus" oneway="1"/>
    <type id="highway.cycleway" priority="1" numLanes="1" speed="8.33" allow="bicycle" oneway="0" width="1.00"/>
    <type id="highway.footway" priority="1" numLanes="1" speed="2.78" allow="pedestrian" oneway="1" width="2.00"/>
    <type id="highway.ford" priority="1" numLanes="1" speed="2.78" allow="army" oneway="0"/>
    <type id="highway.living_street" priority="2" numLanes="1" speed="2.78" disallow="tram rail_urban rail rail_electric rail_fast ship" oneway="0"/>
    <type id="highway.motorway" priority="14" numLanes="2" speed="39.44" allow="private emergency authority army vip passenger hov taxi bus coach delivery truck trailer motorcycle evehicle custom1 custom2" oneway="1"/>
    <type id="highway.motorway_link" priority="9" numLanes="1" speed="22.22" allow="private emergency authority army vip passenger hov taxi bus coach delivery truck trailer motorcycle evehicle custom1 custom2" oneway="1"/>
    <type id="highway.path" priority="1" numLanes="1" speed="2.78" allow="pedestrian bicycle" oneway="1" width="2.00"/>
    <type id="highway.pedestrian" priority="1" numLanes="1" speed="2.78" allow="pedestrian" oneway="1" width="2.00"/>
    <type id="highway.primary" priority="12" numLanes="2" speed="27.78" disallow="tram rail_urban rail rail_electric rail_fast ship" oneway="0"/>
    <type id="highway.primary_link" priority="7" numLanes="1" speed="22.22" disallow="tram rail_urban rail rail_electric rail_fast ship" oneway="0"/>
    <type id="highway.raceway" priority="15" numLanes="2" speed="83.33" allow="vip" oneway="0"/>
    <type id="highway.residential" priority="3" numLanes="1" speed="13.89" disallow="tram rail_urban rail rail_electric rail_fast ship" oneway="0"/>
    <type id="highway.secondary" priority="11" numLanes="1" speed="27.78" disallow="tram rail_urban rail rail_electric rail_fast ship" oneway="0"/>
    <type id="highway.secondary_link" priority="6" numLanes="1" speed="22.22" disallow="tram rail_urban rail rail_electric rail_fast ship" oneway="0"/>
    <type id="highway.service" priority="1" numLanes="1" speed="5.56" allow="pedestrian delivery bicycle" oneway="0"/>
    <type id="highway.stairs" priority="1" numLanes="1" speed="1.39" allow="pedestrian" oneway="1" width="2.00"/>
    <type id="highway.step" priority="1" numLanes="1" speed="1.39" allow="pedestrian" oneway="1" width="2.00"/>
    <type id="highway.steps" priority="1" numLanes="1" speed="1.39" allow="pedestrian" oneway="1" width="2.00"/>
    <type id="highway.tertiary" priority="10" numLanes="1" speed="22.22" disallow="tram rail_urban rail rail_electric rail_fast ship" oneway="0"/>
    <type id="highway.tertiary_link" priority="5" numLanes="1" speed="22.22" disallow="tram rail_urban rail rail_electric rail_fast ship" oneway="0"/>
    <type id="highway.track" priority="1" numLanes="1" speed="5.56" disallow="tram rail_urban rail rail_electric rail_fast ship" oneway="0"/>
    <type id="highway.trunk" priority="13" numLanes="2" speed="27.78" disallow="pedestrian bicycle tram rail_urban rail rail_electric rail_fast ship" oneway="0"/>
    <type id="highway.trunk_link" priority="8" numLanes="1" speed="22.22" disallow="pedestrian bicycle tram rail_urban rail rail_electric rail_fast ship" oneway="0"/>
    <type id="highway.unclassified" priority="4" numLanes="1" speed="13.89" disallow="tram rail_urban rail rail_electric rail_fast ship" oneway="0"/>
    <type id="highway.unsurfaced" priority="1" numLanes="1" speed="8.33" disallow="tram rail_urban rail rail_electric rail_fast ship" oneway="0"/>
    <type id="railway.highspeed" priority="21" numLanes="1" speed="69.44" allow="rail_fast" oneway="1"/>
    <type id="railway.light_rail" priority="19" numLanes="1" speed="27.78" allow="rail_urban" oneway="1"/>
    <type id="railway.preserved" priority="16" numLanes="1" speed="27.78" allow="rail" oneway="1"/>
    <type id="railway.rail" priority="20" numLanes="1" speed="44.44" allow="rail" oneway="1"/>
    <type id="railway.subway" priority="18" numLanes="1" speed="27.78" allow="rail_urban" oneway="1"/>
    <type id="railway.tram" priority="17" numLanes="1" speed="13.89" allow="tram" oneway="1"/>

    <edge id=":1031066522_0" function="internal">
        <lane id=":1031066522_0_0" index="0" disallow="tram rail_urban rail rail_electric rail_fast ship" speed="6.58" length="8.74" shape="1221.31,223.77 1220.22,221.61 1218.73,220.25 1216.83,219.71 1214.52,219.96"/>
    </edge>
    <edge id=":1031066522_1" function="internal">
        <lane id=":1031066522_1_0" index="0" disallow="tram rail_urban rail rail_electric rail_fast ship" speed="7.05" length="11.38" shape="1221.31,223.77 1220.42,220.11 1220.57,217.29 1221.75,215.31 1223.96,214.17"/>
    </edge>
    <edge id=":1031066522_2" function="internal">
        <lane id=":1031066522_2_0" index="0" disallow="tram rail_urban rail rail_electric rail_fast ship" speed="19.44" length="10.60" shape="1224.77,217.26 1214.52,219.96"/>
    </edge>
    <edge id=":1031066522_3" function="internal">
        <lane id=":1031066522_3_0" index="0" disallow="tram rail_urban rail rail_electric rail_fast ship" speed="3.65" length="2.34" shape="1224.77,217.26 1223.41,216.79 1222.82,216.12"/>
    </edge>
    <edge id=":1031066522_6" function="internal">
        <lane id=":1031066522_6_0" index="0" disallow="tram rail_urban rail rail_electric rail_fast ship" speed="3.65" length="2.34" shape="1222.82,216.12 1223.00,215.25 1223.96,214.17"/>
    </edge>
    <edge id=":1031066522_4" function="internal">
        <lane id=":1031066522_4_0" index="0" disallow="tram rail_urban rail rail_electric rail_fast ship" speed="19.44" length="10.60" shape="1213.71,216.87 1223.96,214.17"/>
    </edge>
    <edge id=":1031066522_5" function="internal">
        <lane id=":1031066522_5_0" index="0" disallow="tram rail_urban rail rail_electric rail_fast ship" speed="3.65" length="2.34" shape="1213.71,216.87 1215.07,217.34 1215.66,218.01"/>
    </edge>
    <edge id=":1031066522_7" function="internal">
        <lane id=":1031066522_7_0" index="0" disallow="tram rail_urban rail rail_electric rail_fast ship" speed="3.65" length="2.34" shape="1215.66,218.01 1215.48,218.88 1214.52,219.96"/>
    </edge>
    <edge id=":1031066838_0" function="internal">
        <lane id=":1031066838_0_0" index="0" disallow="tram rail_urban rail rail_electric rail_fast ship" speed="23.61" length="13.94" shape="1267.56,205.98 1264.24,207.21 1261.32,208.90 1258.51,210.85 1255.52,212.86"/>
    </edge>
    <edge id=":1031066838_1" function="internal">
        <lane id=":1031066838_1_0" index="0" disallow="tram rail_urban rail rail_electric rail_fast ship" speed="19.44" length="13.93" shape="1267.56,205.98 1254.09,209.54"/>
    </edge>
    <edge id=":1031066838_2" function="internal">
        <lane id=":1031066838_2_0" index="0" disallow="tram rail_urban rail rail_electric rail_fast ship" speed="3.65" length="2.34" shape="1267.56,205.98 1266.20,205.50 1265.61,204.83"/>
    </edge>
    <edge id=":1031066838_6" function="internal">
        <lane id=":1031066838_6_0" index="0" disallow="tram rail_urban rail rail_electric rail_fast ship" speed="3.65" length="2.34" shape="1265.61,204.83 1265.80,203.96 1266.76,202.88"/>
    </edge>
    <edge id=":1031066838_3" function="internal">
        <lane id=":1031066838_3_0" index="0" disallow="tram rail_urban rail rail_electric rail_fast ship" speed="19.44" length="13.95" shape="1253.28,206.45 1266.76,202.88"/>
    </edge>
    <edge id=":1031066838_4" function="internal">
        <lane id=":1031066838_4_0" index="0" disallow="tram rail_urban rail rail_electric rail_fast ship" speed="4.95" length="3.11" shape="1253.28,206.45 1255.62,206.77 1256.07,207.37"/>
    </edge>
    <edge id=":1031066838_5" function="internal">
        <lane id=":1031066838_5_0" index="0" disallow="tram rail_urban rail rail_electric rail_fast ship" speed="3.65" length="2.34" shape="1253.28,206.45 1254.64,206.92 1255.23,207.59"/>
    </edge>
    <edge id=":1031066838_7" function="internal">
        <lane id=":1031066838_7_0" index="0" disallow="tram rail_urban rail rail_electric rail_fast ship" speed="4.95" length="6.31" shape="1256.07,207.37 1256.97,208.55 1257.04,210.88 1255.52,212.86"/>
    </edge>
    <edge id=":1031066838_8" function="internal">
        <lane id=":1031066838_8_0" index="0" disallow="tram rail_urban rail rail_electric rail_fast ship" speed="3.65" length="2.34" shape="1255.23,207.59 1255.05,208.47 1254.09,209.54"/>
    </edge>
    <edge id=":11242988646_0" function="internal">
        <lane id=":11242988646_0_0" index="0" disallow="tram rail_urban rail rail_electric rail_fast ship" speed="13.89" length="0.10" shape="2499.83,1261.42 2499.83,1261.32"/>
    </edge>
    <edge id=":11242988646_1" function="internal">
        <lane id=":11242988646_1_0" index="0" disallow="tram rail_urban rail rail_electric rail_fast ship" speed="13.89" length="0.10" shape="2496.64,1261.10 2496.63,1261.20"/>
    </edge>
    <edge id=":1229681861_0" function="internal">
        <lane id=":1229681861_0_0" index="0" disallow="tram rail_urban rail rail_electric rail_fast ship" speed="6.65" length="9.25" shape="1450.47,520.59 1448.47,519.16 1446.44,518.71 1444.38,519.26 1442.31,520.80"/>
    </edge>
    <edge id=":1229681861_1" function="internal">
        <lane id=":1229681861_1_0" index="0" disallow="tram rail_urban rail rail_electric rail_fast ship" speed="13.89" length="14.45" shape="1450.47,520.59 1439.96,510.68"/>
    </edge>
    <edge id=":1229681861_2" function="internal">
        <lane id=":1229681861_2_0" index="0" disallow="tram rail_urban rail rail_electric rail_fast ship" speed="3.65" length="2.34" shape="1450.47,520.59 1450.17,519.18 1450.44,518.33"/>
    </edge>
    <edge id=":1229681861_9" function="internal">
        <lane id=":1229681861_9_0" index="0" disallow="tram rail_urban rail rail_electric rail_fast ship" speed="3.65" length="2.34" shape="1450.44,518.33 1451.28,518.03 1452.70,518.29"/>
    </edge>
    <edge id=":1229681861_3" function="internal">
        <lane id=":1229681861_3_0" index="0" disallow="tram rail_urban rail rail_electric rail_fast ship" speed="13.89" length="14.53" shape="1442.13,508.33 1452.70,518.29"/>
    </edge>
    <edge id=":1229681861_4" function="internal">
        <lane id=":1229681861_4_0" index="0" disallow="tram rail_urban rail rail_electric rail_fast ship" speed="7.90" length="6.08" shape="1442.13,508.33 1444.64,511.41 1445.21,513.43"/>
    </edge>
    <edge id=":1229681861_5" function="internal">
        <lane id=":1229681861_5_0" index="0" disallow="tram rail_urban rail rail_electric rail_fast ship" speed="3.65" length="2.34" shape="1442.13,508.33 1442.47,509.73 1442.22,510.59"/>
    </edge>
    <edge id=":1229681861_10" function="internal">
        <lane id=":1229681861_10_0" index="0" disallow="tram rail_urban rail rail_electric rail_fast ship" speed="7.90" length="8.33" shape="1445.21,513.43 1445.51,514.51 1444.73,517.64 1442.31,520.80"/>
    </edge>
    <edge id=":1229681861_11" function="internal">
        <lane id=":1229681861_11_0" index="0" disallow="tram rail_urban rail rail_electric rail_fast ship" speed="3.65" length="2.34" shape="1442.22,510.59 1441.39,510.91 1439.96,510.68"/>
    </edge>
    <edge id=":1229681861_6" function="internal">
        <lane id=":1229681861_6_0" index="0" disallow="tram rail_urban rail rail_electric rail_fast ship" speed="6.39" length="9.04" shape="1440.07,518.50 1441.60,516.53 1442.08,514.56 1441.54,512.62 1439.96,510.68"/>
    </edge>
    <edge id=":1229681861_7" function="internal">
        <lane id=":1229681861_7_0" index="0" disallow="tram rail_urban rail rail_electric rail_fast ship" speed="8.12" length="14.30" shape="1440.07,518.50 1443.26,516.15 1446.43,515.33 1449.58,516.05 1452.70,518.29"/>
    </edge>
    <edge id=":1229681861_8" function="internal">
        <lane id=":1229681861_8_0" index="0" disallow="tram rail_urban rail rail_electric rail_fast ship" speed="3.65" length="4.67" shape="1440.07,518.50 1441.49,518.24 1442.34,518.53 1442.61,519.39 1442.31,520.80"/>
    </edge>
    <edge id=":1229681878_0" function="internal">
        <lane id=":1229681878_0_0" index="0" disallow="tram rail_urban rail rail_electric rail_fast ship" speed="3.65" length="4.67" shape="1392.14,503.87 1392.45,505.28 1392.17,506.13 1391.33,506.42 1389.91,506.16"/>
    </edge>
    <edge id=":1229681893_0" function="internal">
        <lane id=":1229681893_0_0" index="0" disallow="tram rail_urban rail rail_electric rail_fast ship" speed="13.89" length="14.42" shape="1539.97,313.46 1525.71,311.29"/>
    </edge>
    <edge id=":1229681893_1" function="internal">
        <lane id=":1229681893_1_0" index="0" disallow="tram rail_urban rail rail_electric rail_fast ship" speed="7.96" length="5.96" shape="1539.97,313.46 1536.21,312.33 1534.65,311.03"/>
    </edge>
    <edge id=":1229681893_2" function="internal">
        <lane id=":1229681893_2_0" index="0" disallow="tram rail_urban rail rail_electric rail_fast ship" speed="3.65" length="2.34" shape="1539.97,313.46 1538.90,312.49 1538.63,311.64"/>
    </edge>
    <edge id=":1229681893_9" function="internal">
        <lane id=":1229681893_9_0" index="0" disallow="tram rail_urban rail rail_electric rail_fast ship" speed="7.96" length="8.32" shape="1534.65,311.03 1533.75,310.27 1532.57,307.28 1532.68,303.36"/>
    </edge>
    <edge id=":1229681893_10" function="internal">
        <lane id=":1229681893_10_0" index="0" disallow="tram rail_urban rail rail_electric rail_fast ship" speed="3.65" length="2.34" shape="1538.63,311.64 1539.14,310.90 1540.45,310.29"/>
    </edge>
    <edge id=":1229681893_3" function="internal">
        <lane id=":1229681893_3_0" index="0" disallow="tram rail_urban rail rail_electric rail_fast ship" speed="6.46" length="9.03" shape="1535.83,303.90 1535.76,306.38 1536.51,308.28 1538.07,309.58 1540.45,310.29"/>
    </edge>
    <edge id=":1229681893_4" function="internal">
        <lane id=":1229681893_4_0" index="0" disallow="tram rail_urban rail rail_electric rail_fast ship" speed="8.06" length="14.23" shape="1535.83,303.90 1534.63,307.63 1532.55,310.11 1529.58,311.32 1525.71,311.29"/>
    </edge>
    <edge id=":1229681893_5" function="internal">
        <lane id=":1229681893_5_0" index="0" disallow="tram rail_urban rail rail_electric rail_fast ship" speed="3.65" length="4.67" shape="1535.83,303.90 1534.84,304.95 1533.98,305.21 1533.26,304.68 1532.68,303.36"/>
    </edge>
    <edge id=":1229681893_6" function="internal">
        <lane id=":1229681893_6_0" index="0" disallow="tram rail_urban rail rail_electric rail_fast ship" speed="6.58" length="9.13" shape="1526.20,308.12 1528.67,308.14 1530.57,307.36 1531.91,305.76 1532.68,303.36"/>
    </edge>
    <edge id=":1229681893_7" function="internal">
        <lane id=":1229681893_7_0" index="0" disallow="tram rail_urban rail rail_electric rail_fast ship" speed="13.89" length="14.41" shape="1526.20,308.12 1540.45,310.29"/>
    </edge>
    <edge id=":1229681893_8" function="internal">
        <lane id=":1229681893_8_0" index="0" disallow="tram rail_urban rail rail_electric rail_fast ship" speed="3.65" length="2.34" shape="1526.20,308.12 1527.27,309.10 1527.54,309.95"/>
    </edge>
    <edge id=":1229681893_11" function="internal">
        <lane id=":1229681893_11_0" index="0" disallow="tram rail_urban rail rail_electric rail_fast ship" speed="3.65" length="2.34" shape="1527.54,309.95 1527.02,310.68 1525.71,311.29"/>
    </edge>
    <edge id=":1229681928_0" function="internal">
        <lane id=":1229681928_0_0" index="0" disallow="tram rail_urban rail rail_electric rail_fast ship" speed="13.89" length="15.25" shape="1452.55,218.89 1449.84,221.56 1447.18,224.34 1444.75,227.30 1442.72,230.47"/>
    </edge>
    <edge id=":1229681928_1" function="internal">
        <lane id=":1229681928_1_0" index="0" disallow="tram rail_urban rail rail_electric rail_fast ship" speed="7.68" length="8.89" shape="1452.55,218.89 1446.61,223.75 1445.42,224.03"/>
    </edge>
    <edge id=":1229681928_2" function="internal">
        <lane id=":1229681928_2_0" index="0" disallow="tram rail_urban rail rail_electric rail_fast ship" speed="3.65" length="2.34" shape="1452.55,218.89 1451.13,219.16 1450.29,218.87"/>
    </edge>
    <edge id=":1229681928_9" function="internal">
        <lane id=":1229681928_9_0" index="0" disallow="tram rail_urban rail rail_electric rail_fast ship" speed="7.68" length="13.27" shape="1445.42,224.03 1442.75,224.65 1440.99,221.61 1441.31,214.61"/>
    </edge>
    <edge id=":1229681928_10" function="internal">
        <lane id=":1229681928_10_0" index="0" disallow="tram rail_urban rail rail_electric rail_fast ship" speed="3.65" length="2.34" shape="1450.29,218.87 1450.01,218.02 1450.31,216.60"/>
    </edge>
    <edge id=":1229681928_3" function="internal">
        <lane id=":1229681928_3_0" index="0" disallow="tram rail_urban rail rail_electric rail_fast ship" speed="5.68" length="11.33" shape="1444.58,214.39 1444.41,217.97 1445.31,219.54 1447.28,219.08 1450.31,216.60"/>
    </edge>
    <edge id=":1229681928_4" function="internal">
        <lane id=":1229681928_4_0" index="0" disallow="tram rail_urban rail rail_electric rail_fast ship" speed="13.89" length="16.30" shape="1444.58,214.39 1444.30,218.36 1444.25,222.63 1443.90,226.80 1442.72,230.47"/>
    </edge>
    <edge id=":1229681928_5" function="internal">
        <lane id=":1229681928_5_0" index="0" disallow="tram rail_urban rail rail_electric rail_fast ship" speed="3.68" length="4.79" shape="1444.58,214.39 1443.85,215.67 1443.06,216.13 1442.21,215.78 1441.31,214.61"/>
    </edge>
    <edge id=":1229681928_6" function="internal">
        <lane id=":1229681928_6_0" index="0" disallow="tram rail_urban rail rail_electric rail_fast ship" speed="13.89" length="14.55" shape="1439.90,228.96 1441.01,225.56 1441.21,221.99 1441.10,218.32 1441.31,214.61"/>
    </edge>
    <edge id=":1229681928_7" function="internal">
        <lane id=":1229681928_7_0" index="0" disallow="tram rail_urban rail rail_electric rail_fast ship" speed="13.89" length="16.22" shape="1439.90,228.96 1442.02,225.67 1444.65,222.44 1447.51,219.39 1450.31,216.60"/>
    </edge>
    <edge id=":1229681928_8" function="internal">
        <lane id=":1229681928_8_0" index="0" disallow="tram rail_urban rail rail_electric rail_fast ship" speed="3.65" length="2.46" shape="1439.90,228.96 1441.17,228.28 1442.06,228.31 1442.14,228.41"/>
    </edge>
    <edge id=":1229681928_11" function="internal">
        <lane id=":1229681928_11_0" index="0" disallow="tram rail_urban rail rail_electric rail_fast ship" speed="3.65" length="2.21" shape="1442.14,228.41 1442.58,229.04 1442.72,230.47"/>
    </edge>
    <edge id=":1229681968_0" function="internal">
        <lane id=":1229681968_0_0" index="0" disallow="tram rail_urban rail rail_electric rail_fast ship" speed="6.29" length="9.04" shape="1617.17,192.20 1614.68,191.85 1612.75,192.40 1611.39,193.87 1610.58,196.26"/>
    </edge>
    <edge id=":1229681968_1" function="internal">
        <lane id=":1229681968_1_0" index="0" disallow="tram rail_urban rail rail_electric rail_fast ship" speed="13.89" length="14.69" shape="1617.17,192.20 1613.59,191.24 1610.04,190.46 1606.44,189.85 1602.77,189.41"/>
    </edge>
    <edge id=":1229681968_2" function="internal">
        <lane id=":1229681968_2_0" index="0" disallow="tram rail_urban rail rail_electric rail_fast ship" speed="3.65" length="2.34" shape="1617.17,192.20 1616.24,191.10 1616.08,190.22"/>
    </edge>
    <edge id=":1229681968_9" function="internal">
        <lane id=":1229681968_9_0" index="0" disallow="tram rail_urban rail rail_electric rail_fast ship" speed="3.65" length="2.34" shape="1616.08,190.22 1616.69,189.56 1618.07,189.13"/>
    </edge>
    <edge id=":1229681968_3" function="internal">
        <lane id=":1229681968_3_0" index="0" disallow="tram rail_urban rail rail_electric rail_fast ship" speed="13.89" length="15.29" shape="1603.08,186.22 1606.85,186.68 1610.64,187.33 1614.40,188.15 1618.07,189.13"/>
    </edge>
    <edge id=":1229681968_4" function="internal">
        <lane id=":1229681968_4_0" index="0" disallow="tram rail_urban rail rail_electric rail_fast ship" speed="7.87" length="6.38" shape="1603.08,186.22 1606.99,187.19 1608.85,188.64"/>
    </edge>
    <edge id=":1229681968_5" function="internal">
        <lane id=":1229681968_5_0" index="0" disallow="tram rail_urban rail rail_electric rail_fast ship" speed="3.65" length="2.34" shape="1603.08,186.22 1604.20,187.13 1604.52,187.97"/>
    </edge>
    <edge id=":1229681968_10" function="internal">
        <lane id=":1229681968_10_0" index="0" disallow="tram rail_urban rail rail_electric rail_fast ship" speed="7.87" length="8.19" shape="1608.85,188.64 1609.55,189.18 1610.74,192.20 1610.58,196.26"/>
    </edge>
    <edge id=":1229681968_11" function="internal">
        <lane id=":1229681968_11_0" index="0" disallow="tram rail_urban rail rail_electric rail_fast ship" speed="3.65" length="2.34" shape="1604.52,187.97 1604.04,188.73 1602.77,189.41"/>
    </edge>
    <edge id=":1229681968_6" function="internal">
        <lane id=":1229681968_6_0" index="0" disallow="tram rail_urban rail rail_electric rail_fast ship" speed="6.35" length="9.10" shape="1607.44,195.68 1607.54,193.15 1606.79,191.25 1605.20,190.01 1602.77,189.41"/>
    </edge>
    <edge id=":1229681968_7" function="internal">
        <lane id=":1229681968_7_0" index="0" disallow="tram rail_urban rail rail_electric rail_fast ship" speed="7.82" length="14.60" shape="1607.44,195.68 1608.73,191.83 1610.93,189.46 1614.05,188.56 1618.07,189.13"/>
    </edge>
    <edge id=":1229681968_8" function="internal">
        <lane id=":1229681968_8_0" index="0" disallow="tram rail_urban rail rail_electric rail_fast ship" speed="3.65" length="4.67" shape="1607.44,195.68 1608.44,194.65 1609.30,194.40 1610.01,194.93 1610.58,196.26"/>
    </edge>
    <edge id=":1229681975_0" function="internal">
        <lane id=":1229681975_0_0" index="0" disallow="tram rail_urban rail rail_electric rail_fast ship" speed="13.89" length="14.09" shape="1389.82,506.07 1379.72,496.24"/>
    </edge>
    <edge id=":1229681975_1" function="internal">
        <lane id=":1229681975_1_0" index="0" disallow="tram rail_urban rail rail_electric rail_fast ship" speed="8.00" length="5.93" shape="1389.82,506.07 1387.45,502.99 1386.92,501.02"/>
    </edge>
    <edge id=":1229681975_2" function="internal">
        <lane id=":1229681975_2_0" index="0" disallow="tram rail_urban rail rail_electric rail_fast ship" speed="3.65" length="2.34" shape="1389.82,506.07 1389.52,504.66 1389.79,503.81"/>
    </edge>
    <edge id=":1229681975_9" function="internal">
        <lane id=":1229681975_9_0" index="0" disallow="tram rail_urban rail rail_electric rail_fast ship" speed="8.00" length="8.26" shape="1386.92,501.02 1386.63,499.89 1387.36,496.77 1389.65,493.62"/>
    </edge>
    <edge id=":1229681975_10" function="internal">
        <lane id=":1229681975_10_0" index="0" disallow="tram rail_urban rail rail_electric rail_fast ship" speed="3.65" length="2.34" shape="1389.79,503.81 1390.63,503.51 1392.05,503.78"/>
    </edge>
    <edge id=":1229681975_3" function="internal">
        <lane id=":1229681975_3_0" index="0" disallow="tram rail_urban rail rail_electric rail_fast ship" speed="6.51" length="9.04" shape="1391.95,495.86 1390.49,497.86 1390.02,499.85 1390.54,501.82 1392.05,503.78"/>
    </edge>
    <edge id=":1229681975_4" function="internal">
        <lane id=":1229681975_4_0" index="0" disallow="tram rail_urban rail rail_electric rail_fast ship" speed="7.93" length="13.95" shape="1391.95,495.86 1388.88,498.25 1385.82,499.11 1382.77,498.44 1379.72,496.24"/>
    </edge>
    <edge id=":1229681975_5" function="internal">
        <lane id=":1229681975_5_0" index="0" disallow="tram rail_urban rail rail_electric rail_fast ship" speed="3.65" length="4.67" shape="1391.95,495.86 1390.54,496.16 1389.68,495.89 1389.39,495.04 1389.65,493.62"/>
    </edge>
    <edge id=":1229681975_6" function="internal">
        <lane id=":1229681975_6_0" index="0" disallow="tram rail_urban rail rail_electric rail_fast ship" speed="6.42" length="8.78" shape="1381.96,493.95 1383.86,495.31 1385.78,495.71 1387.71,495.15 1389.65,493.62"/>
    </edge>
    <edge id=":1229681975_7" function="internal">
        <lane id=":1229681975_7_0" index="0" disallow="tram rail_urban rail rail_electric rail_fast ship" speed="13.89" length="14.09" shape="1381.96,493.95 1392.05,503.78"/>
    </edge>
    <edge id=":1229681975_8" function="internal">
        <lane id=":1229681975_8_0" index="0" disallow="tram rail_urban rail rail_electric rail_fast ship" speed="3.65" length="2.34" shape="1381.96,493.95 1382.26,495.36 1381.99,496.21"/>
    </edge>
    <edge id=":1229681975_11" function="internal">
        <lane id=":1229681975_11_0" index="0" disallow="tram rail_urban rail rail_electric rail_fast ship" speed="3.65" length="2.34" shape="1381.99,496.21 1381.14,496.51 1379.72,496.24"/>
    </edge>
    <edge id=":1229682016_0" function="internal">
        <lane id=":1229682016_0_0" index="0" disallow="tram rail_urban rail rail_electric rail_fast ship" speed="8.22" length="11.09" shape="1501.79,204.84 1499.50,205.69 1497.69,207.34 1496.34,209.80 1495.47,213.07"/>
    </edge>
    <edge id=":1229682016_1" function="internal">
        <lane id=":1229682016_1_0" index="0" disallow="tram rail_urban rail rail_electric rail_fast ship" speed="13.89" length="14.83" shape="1501.79,204.84 1487.20,207.46"/>
    </edge>
    <edge id=":1229682016_2" function="internal">
        <lane id=":1229682016_2_0" index="0" disallow="tram rail_urban rail rail_electric rail_fast ship" speed="3.65" length="2.34" shape="1501.79,204.84 1500.47,204.26 1499.94,203.54"/>
    </edge>
    <edge id=":1229682016_9" function="internal">
        <lane id=":1229682016_9_0" index="0" disallow="tram rail_urban rail rail_electric rail_fast ship" speed="3.65" length="2.34" shape="1499.94,203.54 1500.20,202.68 1501.25,201.69"/>
    </edge>
    <edge id=":1229682016_3" function="internal">
        <lane id=":1229682016_3_0" index="0" disallow="tram rail_urban rail rail_electric rail_fast ship" speed="13.89" length="14.86" shape="1486.62,204.32 1501.25,201.69"/>
    </edge>
    <edge id=":1229682016_4" function="internal">
        <lane id=":1229682016_4_0" index="0" disallow="tram rail_urban rail rail_electric rail_fast ship" speed="7.52" length="6.27" shape="1486.62,204.32 1491.19,204.13 1492.73,204.84"/>
    </edge>
    <edge id=":1229682016_5" function="internal">
        <lane id=":1229682016_5_0" index="0" disallow="tram rail_urban rail rail_electric rail_fast ship" speed="3.65" length="2.34" shape="1486.62,204.32 1487.95,204.89 1488.48,205.60"/>
    </edge>
    <edge id=":1229682016_10" function="internal">
        <lane id=":1229682016_10_0" index="0" disallow="tram rail_urban rail rail_electric rail_fast ship" speed="7.52" length="9.48" shape="1492.73,204.84 1494.19,205.52 1495.61,208.50 1495.47,213.07"/>
    </edge>
    <edge id=":1229682016_11" function="internal">
        <lane id=":1229682016_11_0" index="0" disallow="tram rail_urban rail rail_electric rail_fast ship" speed="3.65" length="2.34" shape="1488.48,205.60 1488.24,206.46 1487.20,207.46"/>
    </edge>
    <edge id=":1229682016_6" function="internal">
        <lane id=":1229682016_6_0" index="0" disallow="tram rail_urban rail rail_electric rail_fast ship" speed="5.88" length="9.11" shape="1492.32,212.53 1492.40,209.89 1491.57,208.16 1489.84,207.35 1487.20,207.46"/>
    </edge>
    <edge id=":1229682016_7" function="internal">
        <lane id=":1229682016_7_0" index="0" disallow="tram rail_urban rail rail_electric rail_fast ship" speed="9.49" length="15.03" shape="1492.32,212.53 1493.50,208.26 1495.38,205.03 1497.96,202.84 1501.25,201.69"/>
    </edge>
    <edge id=":1229682016_8" function="internal">
        <lane id=":1229682016_8_0" index="0" disallow="tram rail_urban rail rail_electric rail_fast ship" speed="3.65" length="4.67" shape="1492.32,212.53 1493.31,211.48 1494.17,211.22 1494.89,211.75 1495.47,213.07"/>
    </edge>
    <edge id=":1229682172_0" function="internal">
        <lane id=":1229682172_0_0" index="0" disallow="tram rail_urban rail rail_electric rail_fast ship" speed="6.56" length="8.99" shape="1411.05,484.10 1409.03,482.72 1407.04,482.30 1405.07,482.85 1403.12,484.36"/>
    </edge>
    <edge id=":1229682172_1" function="internal">