<?xml version="1.0" encoding="UTF-8"?>

<!-- generated on 12/16/25 15:33:05 by Eclipse SUMO netconvert Version 1.5.0
<configuration xmlns:xsi="http://www.w3.org/2001/XMLSchema-instance" xsi:noNamespaceSchemaLocation="http://sumo.dlr.de/xsd/netconvertConfiguration.xsd">

    <input>
        <osm-files value="reichertshausen_raw.osm"/>
    </input>

    <output>
        <output-file value="reichertshausen.net.xml"/>
    </output>

    <projection>
        <proj.utm value="true"/>
    </projection>

    <tls_building>
        <tls.discard-simple value="true"/>
    </tls_building>

    <edge_removal>
        <keep-edges.by-vclass value="passenger"/>
        <remove-edges.isolated value="true"/>
    </edge_removal>

    <junctions>
        <no-turnarounds.tls value="true"/>
        <junctions.join value="true"/>
    </junctions>

    <report>
        <aggregate-warnings value="5"/>
    </report>

</configuration>
-->

<net version="1.3" junctionCornerDetail="5" limitTurnSpeed="5.50" xmlns:xsi="http://www.w3.org/2001/XMLSchema-instance" xsi:noNamespaceSchemaLocation="http://sumo.dlr.de/xsd/net_file.xsd">

    <location netOffset="-679213.39,-5367374.09" convBoundary="0.00,0.00,7486.48,4829.87" origBoundary="11.423804,48.432142,11.525998,48.476112" projParameter="+proj=utm +zone=32 +ellps=WGS84 +datum=WGS84 +units=m +no_defs"/>

    <type id="highway.bridleway" priority="1" numLanes="1" speed="2.78" allow="pedestrian" oneway="1" width="2.00"/>
    <type id="highway.bus_guideway" priority="1" numLanes="1" speed="27.78" allow="bus" oneway="1"/>
    <type id="highway.cycleway" priority="1" numLanes="1" speed="8.33" allow="bicycle" oneway="0" width="1.00"/>
    <type id="highway.footway" priority="1" numLanes="1" speed="2.78" allow="pedestrian" oneway="1" width="2.00"/>
    <type id="highway.ford" priority="1" numLanes="1" speed="2.78" allow="army" oneway="0"/>
    <type id="highway.living_street" priority="2" numLanes="1" speed="2.78" disallow="tram rail_urban rail rail_electric rail_fast ship" oneway="0"/>
    <type id="highway.motorway" priority="14" numLanes="2" speed="39.44" allow="private emergency authority army vip passenger hov taxi bus coach delivery truck trailer motorcycle evehicle custom1 custom2" oneway="1"/>
    <type id="highway.motorway_link" priority="9" numLanes="1" speed="22.22" allow="private emergency authority army vip passenger hov taxi bus coach delivery truck trailer motorcycle evehicle custom1 custom2" oneway="1"/>
    <type id="highway.path" priority="1" numLanes="1" speed="2.78" allow="pedestrian bicycle" oneway="1" width="2.00"/>
    <type id="highway.pedestrian" priority="1" numLanes="1" speed="2.78" allow="pedestrian" oneway="1" width="2.00"/>
    <type id="highway.primary" priority="12" numLanes="2" speed="27.78" disallow="tram rail_urban rail rail_electric rail_fast ship" oneway="0"/>
    <type id="highway.primary_link" priority="7" numLanes="1" speed="22.22" disallow="tram rail_urban rail rail_electric rail_fast ship" oneway="0"/>
    <type id="highway.raceway" priority="15" numLanes="2" speed="83.33" allow="vip" oneway="0"/>
    <type id="highway.residential" priority="3" numLanes="1" speed="13.89" disallow="tram rail_urban rail rail_electric rail_fast ship" oneway="0"/>
    <type id="highway.secondary" priority="11" numLanes="1" speed="27.78" disallow="tram rail_urban rail rail_electric rail_fast ship" oneway="0"/>
    <type id="highway.secondary_link" priority="6" numLanes="1" speed="22.22" disallow="tram rail_urban rail rail_electric rail_fast ship" oneway="0"/>
    <type id="highway.service" priority="1" numLanes="1" speed="5.56" allow="pedestrian delivery bicycle" oneway="0"/>
    <type id="highway.stairs" priority="1" numLanes="1" speed="1.39" allow="pedestrian" oneway="1" width="2.00"/>
    <type id="highway.step" priority="1" numLanes="1" speed="1.39" allow="pedestrian" oneway="1" width="2.00"/>
    <type id="highway.steps" priority="1" numLanes="1" speed="1.39" allow="pedestrian" oneway="1" width="2.00"/>
    <type id="highway.tertiary" priority="10" numLanes="1" speed="22.22" disallow="tram rail_urban rail rail_electric rail_fast ship" oneway="0"/>
    <type id="highway.tertiary_link" priority="5" numLanes="1" speed="22.22" disallow="tram rail_urban rail rail_electric rail_fast ship" oneway="0"/>
    <type id="highway.track" priority="1" numLanes="1" speed="5.56" disallow="tram rail_urban rail rail_electric rail_fast ship" oneway="0"/>
    <type id="highway.trunk" priority="13" numLanes="2" speed="27.78" disallow="pedestrian bicycle tram rail_urban rail rail_electric rail_fast ship" oneway="0"/>
    <type id="highway.trunk_link" priority="8" numLanes="1" speed="22.22" disallow="pedestrian bicycle tram rail_urban rail rail_electric rail_fast ship" oneway="0"/>
    <type id="highway.unclassified" priority="4" numLanes="1" speed="13.89" disallow="tram rail_urban rail rail_electric rail_fast ship" oneway="0"/>
    <type id="highway.unsurfaced" priority="1" numLanes="1" speed="8.33" disallow="tram rail_urban rail rail_electric rail_fast ship" oneway="0"/>
    <type id="railway.highspeed" priority="21" numLanes="1" speed="69.44" allow="rail_fast" oneway="1"/>
    <type id="railway.light_rail" priority="19" numLanes="1" speed="27.78" allow="rail_urban" oneway="1"/>
    <type id="railway.preserved" priority="16" numLanes="1" speed="27.78" allow="rail" oneway="1"/>
    <type id="railway.rail" priority="20" numLanes="1" speed="44.44" allow="rail" oneway="1"/>
    <type id="railway.subway" priority="18" numLanes="1" speed="27.78" allow="rail_urban" oneway="1"/>
    <type id="railway.tram" priority="17" numLanes="1" speed="13.89" allow="tram" oneway="1"/>

    <edge id=":1018370783_0" function="internal">
        <lane id=":1018370783_0_0" index="0" disallow="tram rail_urban rail rail_electric rail_fast ship" speed="8.33" length="15.73" shape="5243.99,3841.06 5243.72,3837.21 5243.61,3833.21 5243.64,3829.21 5243.75,3825.35"/>
    </edge>
    <edge id=":1018370783_1" function="internal">
        <lane id=":1018370783_1_0" index="0" disallow="tram rail_urban rail rail_electric rail_fast ship" speed="8.33" length="15.66" shape="5243.99,3841.06 5244.27,3837.57 5245.81,3834.44 5248.61,3831.68 5252.69,3829.28"/>
    </edge>
    <edge id=":1018370783_2" function="internal">
        <lane id=":1018370783_2_0" index="0" disallow="tram rail_urban rail rail_electric rail_fast ship" speed="3.65" length="4.67" shape="5243.99,3841.06 5244.67,3839.79 5245.43,3839.32 5246.26,3839.64 5247.18,3840.75"/>
    </edge>
    <edge id=":1018370783_3" function="internal">
        <lane id=":1018370783_3_0" index="0" disallow="tram rail_urban rail rail_electric rail_fast ship" speed="8.33" length="11.72" shape="5254.05,3832.17 5250.86,3834.01 5248.65,3836.06 5247.42,3838.30 5247.18,3840.75"/>
    </edge>
    <edge id=":1018370783_4" function="internal">
        <lane id=":1018370783_4_0" index="0" disallow="tram rail_urban rail rail_electric rail_fast ship" speed="7.43" length="16.51" shape="5254.05,3832.17 5249.36,3833.65 5246.09,3833.01 5244.22,3830.24 5243.75,3825.35"/>
    </edge>
    <edge id=":1018370783_5" function="internal">
        <lane id=":1018370783_5_0" index="0" disallow="tram rail_urban rail rail_electric rail_fast ship" speed="3.65" length="4.67" shape="5254.05,3832.17 5252.62,3831.96 5251.92,3831.41 5251.94,3830.51 5252.69,3829.28"/>
    </edge>
    <edge id=":1018370783_6" function="internal">
        <lane id=":1018370783_6_0" index="0" disallow="tram rail_urban rail rail_electric rail_fast ship" speed="5.72" length="9.20" shape="5246.95,3825.48 5247.21,3828.20 5248.25,3829.74 5250.08,3830.10 5252.69,3829.28"/>
    </edge>
    <edge id=":1018370783_7" function="internal">
        <lane id=":1018370783_7_0" index="0" disallow="tram rail_urban rail rail_electric rail_fast ship" speed="8.33" length="15.29" shape="5246.95,3825.48 5246.83,3829.27 5246.80,3833.12 5246.91,3836.97 5247.18,3840.75"/>
    </edge>
    <edge id=":1018370783_8" function="internal">
        <lane id=":1018370783_8_0" index="0" disallow="tram rail_urban rail rail_electric rail_fast ship" speed="3.65" length="4.67" shape="5246.95,3825.48 5246.10,3826.64 5245.29,3827.01 5244.50,3826.58 5243.75,3825.35"/>
    </edge>
    <edge id=":1018370798_0" function="internal">
        <lane id=":1018370798_0_0" index="0" disallow="tram rail_urban rail rail_electric rail_fast ship" speed="3.65" length="4.67" shape="5398.00,4154.18 5397.15,4155.34 5396.33,4155.70 5395.55,4155.26 5394.81,4154.03"/>
    </edge>
    <edge id=":1018370804_0" function="internal">
        <lane id=":1018370804_0_0" index="0" disallow="tram rail_urban rail rail_electric rail_fast ship" speed="3.65" length="4.67" shape="5431.15,3769.13 5432.58,3769.32 5433.29,3769.86 5433.29,3770.75 5432.57,3772.00"/>
    </edge>
    <edge id=":1018370848_0" function="internal">
        <lane id=":1018370848_0_0" index="0" disallow="tram rail_urban rail rail_electric rail_fast ship" speed="8.33" length="9.57" shape="5414.92,4007.47 5413.11,4009.62 5412.13,4011.32 5411.67,4013.25 5411.42,4016.06"/>
    </edge>
    <edge id=":1018370848_1" function="internal">
        <lane id=":1018370848_1_0" index="0" disallow="tram rail_urban rail rail_electric rail_fast ship" speed="8.33" length="11.32" shape="5414.92,4007.47 5413.05,4008.99 5410.66,4009.93 5407.76,4010.31 5404.34,4010.12"/>
    </edge>
    <edge id=":1018370848_2" function="internal">
        <lane id=":1018370848_2_0" index="0" disallow="tram rail_urban rail rail_electric rail_fast ship" speed="3.65" length="4.67" shape="5414.92,4007.47 5413.52,4007.83 5412.66,4007.59 5412.34,4006.76 5412.54,4005.33"/>
    </edge>
    <edge id=":1018370848_3" function="internal">
        <lane id=":1018370848_3_0" index="0" disallow="tram rail_urban rail rail_electric rail_fast ship" speed="8.03" length="7.69" shape="5405.33,4007.03 5407.69,4007.17 5409.68,4006.93 5411.30,4006.32 5412.54,4005.33"/>
    </edge>
    <edge id=":1018370848_4" function="internal">
        <lane id=":1018370848_4_0" index="0" disallow="tram rail_urban rail rail_electric rail_fast ship" speed="7.62" length="12.24" shape="5405.33,4007.03 5408.22,4007.91 5410.20,4009.72 5411.26,4012.43 5411.42,4016.06"/>
    </edge>
    <edge id=":1018370848_5" function="internal">
        <lane id=":1018370848_5_0" index="0" disallow="tram rail_urban rail rail_electric rail_fast ship" speed="3.67" length="4.74" shape="5405.33,4007.03 5406.24,4008.17 5406.38,4009.07 5405.75,4009.72 5404.34,4010.12"/>
    </edge>
    <edge id=":1018370848_6" function="internal">
        <lane id=":1018370848_6_0" index="0" disallow="tram rail_urban rail rail_electric rail_fast ship" speed="6.20" length="7.76" shape="5408.22,4015.82 5408.12,4013.53 5407.44,4011.82 5406.18,4010.68 5404.34,4010.12"/>
    </edge>
    <edge id=":1018370848_7" function="internal">
        <lane id=":1018370848_7_0" index="0" disallow="tram rail_urban rail rail_electric rail_fast ship" speed="8.33" length="11.64" shape="5408.22,4015.82 5408.58,4012.60 5409.27,4010.10 5410.51,4007.84 5412.54,4005.33"/>
    </edge>
    <edge id=":1018370848_8" function="internal">
        <lane id=":1018370848_8_0" index="0" disallow="tram rail_urban rail rail_electric rail_fast ship" speed="3.65" length="4.67" shape="5408.22,4015.82 5409.11,4014.68 5409.94,4014.34 5410.71,4014.80 5411.42,4016.06"/>
    </edge>
    <edge id=":1018370853_0" function="internal">
        <lane id=":1018370853_0_0" index="0" disallow="tram rail_urban rail rail_electric rail_fast ship" speed="8.33" length="0.16" shape="5385.91,4010.00 5385.86,4010.01 5385.83,4010.01 5385.80,4010.02 5385.75,4010.03"/>
    </edge>
    <edge id=":1018370853_1" function="internal">
        <lane id=":1018370853_1_0" index="0" disallow="tram rail_urban rail rail_electric rail_fast ship" speed="8.33" length="0.48" shape="5385.08,4006.90 5385.22,4006.87 5385.32,4006.85 5385.41,4006.84 5385.56,4006.82"/>
    </edge>
    <edge id=":1018370871_0" function="internal">
        <lane id=":1018370871_0_0" index="0" disallow="tram rail_urban rail rail_electric rail_fast ship" speed="6.46" length="9.03" shape="5389.86,3798.82 5388.92,3796.52 5387.46,3795.10 5385.51,3794.55 5383.04,3794.87"/>
    </edge>
    <edge id=":1018370871_1" function="internal">
        <lane id=":1018370871_1_0" index="0" disallow="tram rail_urban rail rail_electric rail_fast ship" speed="8.33" length="14.01" shape="5389.86,3798.82 5389.38,3794.96 5390.05,3791.71 5391.86,3789.07 5394.83,3787.02"/>
    </edge>
    <edge id=":1018370871_2" function="internal">
        <lane id=":1018370871_2_0" index="0" disallow="tram rail_urban rail rail_electric rail_fast ship" speed="3.65" length="4.67" shape="5389.86,3798.82 5390.34,3797.46 5391.02,3796.87 5391.89,3797.06 5392.96,3798.03"/>
    </edge>
    <edge id=":1018370871_3" function="internal">
        <lane id=":1018370871_3_0" index="0" disallow="tram rail_urban rail rail_electric rail_fast ship" speed="7.24" length="9.60" shape="5396.24,3789.89 5394.25,3791.28 5393.05,3793.10 5392.62,3795.35 5392.96,3798.03"/>
    </edge>
    <edge id=":1018370871_4" function="internal">
        <lane id=":1018370871_4_0" index="0" disallow="tram rail_urban rail rail_electric rail_fast ship" speed="8.33" length="14.13" shape="5396.24,3789.89 5392.96,3791.41 5389.77,3792.71 5386.51,3793.83 5383.04,3794.87"/>
    </edge>
    <edge id=":1018370871_5" function="internal">
        <lane id=":1018370871_5_0" index="0" disallow="tram rail_urban rail rail_electric rail_fast ship" speed="3.65" length="4.67" shape="5396.24,3789.89 5394.81,3789.71 5394.10,3789.16 5394.10,3788.27 5394.83,3787.02"/>
    </edge>
    <edge id=":1018370871_6" function="internal">
        <lane id=":1018370871_6_0" index="0" disallow="tram rail_urban rail rail_electric rail_fast ship" speed="8.33" length="13.53" shape="5382.18,3791.79 5385.56,3790.79 5388.63,3789.73 5391.64,3788.51 5394.83,3787.02"/>
    </edge>
    <edge id=":1018370871_7" function="internal">
        <lane id=":1018370871_7_0" index="0" disallow="tram rail_urban rail rail_electric rail_fast ship" speed="7.96" length="14.28" shape="5382.18,3791.79 5386.08,3791.28 5389.17,3792.15 5391.47,3794.40 5392.96,3798.03"/>
    </edge>
    <edge id=":1018370871_8" function="internal">
        <lane id=":1018370871_8_0" index="0" disallow="tram rail_urban rail rail_electric rail_fast ship" speed="3.65" length="4.67" shape="5382.18,3791.79 5383.55,3792.23 5384.15,3792.90 5383.98,3793.78 5383.04,3794.87"/>
    </edge>
    <edge id=":1018370873_0" function="internal">
        <lane id=":1018370873_0_0" index="0" disallow="tram rail_urban rail rail_electric rail_fast ship" speed="7.94" length="10.70" shape="5266.21,3730.02 5263.09,3730.79 5260.74,3732.07 5259.17,3733.86 5258.37,3736.15"/>
    </edge>
    <edge id=":1018370873_1" function="internal">
        <lane id=":1018370873_1_0" index="0" disallow="tram rail_urban rail rail_electric rail_fast ship" speed="7.59" length="15.40" shape="5266.21,3730.02 5261.80,3730.04 5258.85,3728.58 5257.37,3725.64 5257.34,3721.23"/>
    </edge>
    <edge id=":1018370873_2" function="internal">
        <lane id=":1018370873_2_0" index="0" disallow="tram rail_urban rail rail_electric rail_fast ship" speed="3.65" length="4.67" shape="5266.21,3730.02 5264.90,3729.40 5264.39,3728.67 5264.67,3727.82 5265.74,3726.85"/>
    </edge>
    <edge id=":1018370873_3" function="internal">
        <lane id=":1018370873_3_0" index="0" disallow="tram rail_urban rail rail_electric rail_fast ship" speed="5.98" length="9.08" shape="5260.51,3721.67 5260.53,3724.27 5261.40,3726.00 5263.14,3726.86 5265.74,3726.85"/>
    </edge>
    <edge id=":1018370873_4" function="internal">
        <lane id=":1018370873_4_0" index="0" disallow="tram rail_urban rail rail_electric rail_fast ship" speed="8.33" length="14.64" shape="5260.51,3721.67 5258.37,3736.15"/>
    </edge>
    <edge id=":1018370873_5" function="internal">
        <lane id=":1018370873_5_0" index="0" disallow="tram rail_urban rail rail_electric rail_fast ship" speed="3.65" length="4.67" shape="5260.51,3721.67 5259.56,3722.75 5258.71,3723.03 5257.97,3722.53 5257.34,3721.23"/>
    </edge>
    <edge id=":1018370873_6" function="internal">
        <lane id=":1018370873_6_0" index="0" disallow="tram rail_urban rail rail_electric rail_fast ship" speed="8.33" length="14.57" shape="5255.21,3735.64 5257.34,3721.23"/>
    </edge>
    <edge id=":1018370873_7" function="internal">
        <lane id=":1018370873_7_0" index="0" disallow="tram rail_urban rail rail_electric rail_fast ship" speed="9.24" length="14.78" shape="5255.21,3735.64 5256.32,3732.31 5258.44,3729.74 5261.58,3727.92 5265.74,3726.85"/>
    </edge>
    <edge id=":1018370873_8" function="internal">
        <lane id=":1018370873_8_0" index="0" disallow="tram rail_urban rail rail_electric rail_fast ship" speed="3.65" length="4.67" shape="5255.21,3735.64 5256.19,3734.59 5257.04,3734.32 5257.77,3734.84 5258.37,3736.15"/>
    </edge>
    <edge id=":1018370887_0" function="internal">
        <lane id=":1018370887_0_0" index="0" disallow="tram rail_urban rail rail_electric rail_fast ship" speed="3.65" length="4.67" shape="5329.55,4031.65 5328.12,4031.43 5327.42,4030.88 5327.44,4029.98 5328.19,4028.75"/>
    </edge>
    <edge id=":1018370891_0" function="internal">
        <lane id=":1018370891_0_0" index="0" disallow="tram rail_urban rail rail_electric rail_fast ship" speed="6.19" length="9.05" shape="5412.02,4057.44 5410.18,4055.69 5408.30,4055.06 5406.37,4055.54 5404.40,4057.14"/>
    </edge>
    <edge id=":1018370891_1" function="internal">
        <lane id=":1018370891_1_0" index="0" disallow="tram rail_urban rail rail_electric rail_fast ship" speed="8.33" length="13.66" shape="5412.02,4057.44 5409.91,4054.56 5408.27,4051.67 5407.20,4048.59 5406.78,4045.10"/>
    </edge>
    <edge id=":1018370891_2" function="internal">
        <lane id=":1018370891_2_0" index="0" disallow="tram rail_urban rail rail_electric rail_fast ship" speed="3.65" length="4.67" shape="5412.02,4057.44 5411.90,4056.00 5412.29,4055.19 5413.16,4055.01 5414.53,4055.46"/>
    </edge>
    <edge id=":1018370891_3" function="internal">
        <lane id=":1018370891_3_0" index="0" disallow="tram rail_urban rail rail_electric rail_fast ship" speed="8.33" length="11.67" shape="5409.98,4045.04 5410.29,4048.22 5411.13,4050.65 5412.53,4052.88 5414.53,4055.46"/>
    </edge>
    <edge id=":1018370891_4" function="internal">
        <lane id=":1018370891_4_0" index="0" disallow="tram rail_urban rail rail_electric rail_fast ship" speed="8.33" length="13.68" shape="5409.98,4045.04 5409.62,4048.52 5408.50,4051.59 5406.71,4054.40 5404.40,4057.14"/>
    </edge>
    <edge id=":1018370891_5" function="internal">
        <lane id=":1018370891_5_0" index="0" disallow="tram rail_urban rail rail_electric rail_fast ship" speed="3.65" length="4.67" shape="5409.98,4045.04 5409.20,4046.26 5408.41,4046.67 5407.60,4046.29 5406.78,4045.10"/>
    </edge>
    <edge id=":1018370891_6" function="internal">
        <lane id=":1018370891_6_0" index="0" disallow="tram rail_urban rail rail_electric rail_fast ship" speed="8.33" length="11.36" shape="5402.05,4054.97 5404.23,4052.58 5405.72,4050.53 5406.56,4048.24 5406.78,4045.10"/>
    </edge>
    <edge id=":1018370891_7" function="internal">
        <lane id=":1018370891_7_0" index="0" disallow="tram rail_urban rail rail_electric rail_fast ship" speed="7.74" length="14.83" shape="5402.05,4054.97 5405.28,4052.35 5408.43,4051.55 5411.52,4052.59 5414.53,4055.46"/>
    </edge>
    <edge id=":1018370891_8" function="internal">
        <lane id=":1018370891_8_0" index="0" disallow="tram rail_urban rail rail_electric rail_fast ship" speed="3.65" length="4.67" shape="5402.05,4054.97 5403.45,4054.63 5404.31,4054.88 5404.62,4055.72 5404.40,4057.14"/>
    </edge>
    <edge id=":10651573384_0" function="internal">
        <lane id=":10651573384_0_0" index="0" disallow="tram rail_urban rail rail_electric rail_fast ship" speed="13.89" length="0.84" shape="3191.09,3926.11 3191.65,3925.48"/>
    </edge>
    <edge id=":10651573384_1" function="internal">
        <lane id=":10651573384_1_0" index="0" disallow="tram rail_urban rail rail_electric rail_fast ship" speed="13.89" length="0.84" shape="3189.26,3923.36 3188.70,3923.98"/>
    </edge>
    <edge id=":11022884195_0" function="internal">
        <lane id=":11022884195_0_0" index="0" disallow="tram rail_urban rail rail_electric rail_fast ship" speed="27.78" length="8.00" shape="6853.47,2891.37 6848.48,2897.61"/>
    </edge>
    <edge id=":11022884195_1" function="internal">
        <lane id=":11022884195_1_0" index="0" disallow="tram rail_urban rail rail_electric rail_fast ship" speed="27.78" length="8.40" shape="6845.98,2895.62 6847.12,2893.38 6847.22,2891.49 6847.33,2889.60 6848.47,2887.37"/>
        <lane id=":11022884195_1_1" index="1" disallow="tram rail_urban rail rail_electric rail_fast ship" speed="27.78" length="8.40" shape="6845.98,2895.62 6850.97,2889.37"/>
    </edge>
    <edge id=":11179767128_0" function="internal">
        <lane id=":11179767128_0_0" index="0" disallow="tram rail_urban rail rail_electric rail_fast ship" speed="13.89" length="0.28" shape="3760.42,2332.18 3760.23,2331.98"/>
    </edge>
    <edge id=":11179767128_1" function="internal">
        <lane id=":11179767128_1_0" index="0" disallow="tram rail_urban rail rail_electric rail_fast ship" speed="13.89" length="0.31" shape="3762.56,2329.79 3762.77,2330.02"/>
    </edge>
    <edge id=":1203616188_0" function="internal">
        <lane id=":1203616188_0_0" index="0" disallow="tram rail_urban rail rail_electric rail_fast ship" speed="27.78" length="0.39" shape="5256.60,3061.48 5256.41,3061.14"/>
    </edge>
    <edge id=":1203616188_1" function="internal">
        <lane id=":1203616188_1_0" index="0" disallow="tram rail_urban rail rail_electric rail_fast ship" speed="27.78" length="0.13" shape="5259.28,3059.71 5259.34,3059.83"/>
    </edge>
    <edge id=":1203616197_0" function="internal">
        <lane id=":1203616197_0_0" index="0" disallow="tram rail_urban rail rail_electric rail_fast ship" speed="20.83" length="0.31" shape="3613.22,1144.37 3612.94,1144.24"/>
    </edge>
    <edge id=":1203616197_1" function="internal">
        <lane id=":1203616197_1_0" index="0" disallow="tram rail_urban rail rail_electric rail_fast ship" speed="20.83" length="0.28" shape="3614.35,1141.36 3614.60,1141.48"/>
    </edge>
    <edge id=":12207707153_0" function="internal">
        <lane id=":12207707153_0_0" index="0" disallow="tram rail_urban rail rail_electric rail_fast ship" speed="13.89" length="0.24" shape="5351.98,3847.17 5351.75,3847.25"/>
    </edge>
    <edge id=":12207707153_1" function="internal">
        <lane id=":12207707153_1_0" index="0" disallow="tram rail_urban rail rail_electric rail_fast ship" speed="13.89" length="0.31" shape="5350.65,3844.24 5350.94,3844.14"/>
    </edge>
    <edge id=":12207707154_0" function="internal">
        <lane id=":12207707154_0_0" index="0" disallow="tram rail_urban rail rail_electric rail_fast ship" speed="13.89" length="0.25" shape="5299.24,3866.50 5299.01,3866.59"/>
    </edge>
    <edge id=":12207707154_1" function="internal">
        <lane id=":12207707154_1_0" index="0" disallow="tram rail_urban rail rail_electric rail_fast ship" speed="13.89" length="0.31" shape="5297.85,3863.61 5298.14,3863.50"/>
    </edge>
    <edge id=":12207707156_0" function="internal">
        <lane id=":12207707156_0_0" index="0" disallow="tram rail_urban rail rail_electric rail_fast ship" speed="13.89" length="0.10" shape="5792.53,3898.50 5792.53,3898.50"/>
    </edge>
    <edge id=":12207707156_1" function="internal">
        <lane id=":12207707156_1_0" index="0" disallow="tram rail_urban rail rail_electric rail_fast ship" speed="13.89" length="0.10" shape="5795.71,3898.11 5795.71,3898.11"/>
    </edge>
    <edge id=":12207707160_0" function="internal">
        <lane id=":12207707160_0_0" index="0" disallow="tram rail_urban rail rail_electric rail_fast ship" speed="13.89" length="0.10" shape="6039.05,3872.22 6039.05,3872.22"/>
    </edge>
    <edge id=":12207707160_1" function="internal">
        <lane id=":12207707160_1_0" index="0" disallow="tram rail_urban rail rail_electric rail_fast ship" speed="13.89" length="0.10" shape="6042.16,3871.45 6042.16,3871.45"/>
    </edge>
    <edge id=":12207707164_0" function="internal">
        <lane id=":12207707164_0_0" index="0" disallow="tram rail_urban rail rail_electric rail_fast ship" speed="13.89" length="0.10" shape="6157.66,3841.70 6157.66,3841.71"/>
        <lane id=":12207707164_0_1" index="1" disallow="tram rail_urban rail rail_electric rail_fast ship" speed="13.89" length="0.10" shape="6160.83,3841.22 6160.83,3841.23"/>
    </edge>
    <edge id=":12207707164_2" function="internal">
        <lane id=":12207707164_2_0" index="0" disallow="tram rail_urban rail rail_electric rail_fast ship" speed="13.89" length="0.10" shape="6163.99,3840.76 6163.99,3840.75"/>
    </edge>
    <edge id=":12207707176_0" function="internal">
        <lane id=":12207707176_0_0" index="0" disallow="tram rail_urban rail rail_electric rail_fast ship" speed="8.33" length="14.40" shape="6377.92,3769.53 6373.98,3783.38"/>
    </edge>
    <edge id=":12207707176_1" function="internal">
        <lane id=":12207707176_1_0" index="0" disallow="tram rail_urban rail rail_electric rail_fast ship" speed="8.01" length="14.20" shape="6377.92,3769.53 6376.34,3773.07 6374.00,3775.27 6370.90,3776.11 6367.04,3775.59"/>
    </edge>
    <edge id=":12207707176_2" function="internal">
        <lane id=":12207707176_2_0" index="0" disallow="tram rail_urban rail rail_electric rail_fast ship" speed="3.65" length="4.67" shape="6377.92,3769.53 6376.83,3770.46 6375.95,3770.63 6375.29,3770.02 6374.85,3768.65"/>
    </edge>
    <edge id=":12207707176_3" function="internal">
        <lane id=":12207707176_3_0" index="0" disallow="tram rail_urban rail rail_electric rail_fast ship" speed="6.52" length="9.05" shape="6367.91,3772.51 6370.37,3772.84 6372.35,3772.31 6373.84,3770.91 6374.85,3768.65"/>
    </edge>
    <edge id=":12207707176_4" function="internal">
        <lane id=":12207707176_4_0" index="0" disallow="tram rail_urban rail rail_electric rail_fast ship" speed="8.00" length="14.21" shape="6367.91,3772.51 6371.47,3774.08 6373.67,3776.42 6374.51,3779.52 6373.98,3783.38"/>
    </edge>
    <edge id=":12207707176_5" function="internal">
        <lane id=":12207707176_5_0" index="0" disallow="tram rail_urban rail rail_electric rail_fast ship" speed="3.65" length="4.67" shape="6367.91,3772.51 6368.85,3773.61 6369.01,3774.49 6368.41,3775.15 6367.04,3775.59"/>
    </edge>
    <edge id=":12207707176_6" function="internal">
        <lane id=":12207707176_6_0" index="0" disallow="tram rail_urban rail rail_electric rail_fast ship" speed="6.50" length="9.03" shape="6370.90,3782.50 6371.24,3780.05 6370.71,3778.08 6369.31,3776.59 6367.04,3775.59"/>
    </edge>
    <edge id=":12207707176_7" function="internal">
        <lane id=":12207707176_7_0" index="0" disallow="tram rail_urban rail rail_electric rail_fast ship" speed="8.33" length="14.40" shape="6370.90,3782.50 6374.85,3768.65"/>
    </edge>
    <edge id=":12207707176_8" function="internal">
        <lane id=":12207707176_8_0" index="0" disallow="tram rail_urban rail rail_electric rail_fast ship" speed="3.65" length="4.67" shape="6370.90,3782.50 6372.00,3781.56 6372.88,3781.40 6373.54,3782.00 6373.98,3783.38"/>
    </edge>
    <edge id=":12207707177_0" function="internal">
        <lane id=":12207707177_0_0" index="0" disallow="tram rail_urban rail rail_electric rail_fast ship" speed="3.65" length="4.67" shape="6325.53,3763.95 6324.59,3762.85 6324.42,3761.97 6325.02,3761.31 6326.39,3760.87"/>
    </edge>
    <edge id=":12290088210_0" function="internal">
        <lane id=":12290088210_0_0" index="0" disallow="tram rail_urban rail rail_electric rail_fast ship" speed="13.89" length="0.15" shape="2395.01,433.57 2395.00,433.61 2394.99,433.64 2394.99,433.67 2394.98,433.72"/>
    </edge>
    <edge id=":12290088210_1" function="internal">
        <lane id=":12290088210_1_0" index="0" disallow="tram rail_urban rail rail_electric rail_fast ship" speed="13.89" length="0.46" shape="2391.81,433.32 2391.83,433.18 2391.84,433.09 2391.86,433.00 2391.89,432.87"/>
    </edge>
    <edge id=":1247401200_0" function="internal">
        <lane id=":1247401200_0_0" index="0" disallow="tram rail_urban rail rail_electric rail_fast ship" speed="20.83" length="1.09" shape="1834.43,3256.63 1834.29,3256.34 1834.21,3256.13 1834.15,3255.92 1834.09,3255.60"/>
    </edge>
    <edge id=":1247401200_1" function="internal">
        <lane id=":1247401200_1_0" index="0" disallow="tram rail_urban rail rail_electric rail_fast ship" speed="20.83" length="0.36" shape="1837.22,3254.94 1837.24,3255.05 1837.26,3255.12 1837.29,3255.19 1837.33,3255.29"/>
    </edge>
    <edge id=":12572143079_0" function="internal">
        <lane id=":12572143079_0_0" index="0" disallow="tram rail_urban rail rail_electric rail_fast ship" speed="8.33" length="0.11" shape="2645.83,395.71 2645.77,395.80"/>
    </edge>
    <edge id=":12572143079_1" function="internal">
        <lane id=":12572143079_1_0" index="0" disallow="tram rail_urban rail rail_electric rail_fast ship" speed="8.33" length="0.32" shape="2643.12,394.01 2643.31,393.74"/>
    </edge>
    <edge id=":12585055323_0" function="internal">
        <lane id=":12585055323_0_0" index="0" disallow="tram rail_urban rail rail_electric rail_fast ship" speed="6.98" length="9.38" shape="6481.04,3988.53 6479.71,3986.42 6477.98,3985.12 6475.86,3984.66 6473.34,3985.01"/>
    </edge>
    <edge id=":12585055323_1" function="internal">
        <lane id=":12585055323_1_0" index="0" disallow="tram rail_urban rail rail_electric rail_fast ship" speed="13.89" length="11.40" shape="6481.04,3988.53 6477.07,3977.84"/>
    </edge>