<?xml version="1.0" encoding="UTF-8"?>

<!-- generated on 12/16/25 15:33:22 by Eclipse SUMO polyconvert Version 1.5.0
<configuration xmlns:xsi="http://www.w3.org/2001/XMLSchema-instance" xsi:noNamespaceSchemaLocation="http://sumo.dlr.de/xsd/polyconvertConfiguration.xsd">

    <input>
        <net-file value="reichertshausen.net.xml"/>
        <osm-files value="reichertshausen_raw.osm"/>
    </input>

    <output>
        <output-file value="reichertshausen.poly.xml"/>
    </output>

    <processing>
        <poi-layer-offset value="5"/>
    </processing>

</configuration>
-->

<additional xmlns:xsi="http://www.w3.org/2001/XMLSchema-instance" xsi:noNamespaceSchemaLocation="http://sumo.dlr.de/xsd/additional_file.xsd">
    <location netOffset="-679213.39,-5367374.09" convBoundary="0.00,-146.09,7527.18,4829.87" origBoundary="11.423804,48.432142,11.525998,48.476112" projParameter="+proj=utm +zone=32 +ellps=WGS84 +datum=WGS84 +units=m +no_defs"/>

    <poly id="1004077135" type="building" color="255,230,230" fill="1" layer="-1.00" shape="3126.120537,930.214053 3131.105073,933.578876 3136.078089,926.273731 3131.093548,922.908904 3126.120537,930.214053"/>
    <poly id="1004077136" type="building" color="255,230,230" fill="1" layer="-1.00" shape="3112.013271,924.408044 3121.532476,930.856155 3127.212434,922.516834 3117.693220,916.068714 3112.013271,924.408044"/>
    <poly id="1004077137" type="building" color="255,230,230" fill="1" layer="-1.00" shape="3467.195765,1205.095498 3478.610681,1205.074617 3478.588324,1196.596035 3467.173032,1196.628031 3467.195765,1205.095498"/>
    <poly id="1004077138" type="building" color="255,230,230" fill="1" layer="-1.00" shape="4135.945232,1442.488599 4131.331987,1446.655956 4134.984030,1450.679478 4139.597275,1446.512124 4135.945232,1442.488599"/>
    <poly id="1004077139" type="building" color="255,230,230" fill="1" layer="-1.00" shape="4130.834041,1428.671525 4123.392175,1435.384068 4131.539631,1444.359627 4138.981856,1437.635981 4130.834041,1428.671525"/>
    <poly id="1004077142" type="building" color="255,230,230" fill="1" layer="-1.00" shape="4168.644352,1527.081411 4157.928537,1520.392363 4150.186550,1532.713712 4160.894955,1539.402506 4168.644352,1527.081411"/>
    <poly id="1004077143" type="building" color="255,230,230" fill="1" layer="-1.00" shape="4713.702244,1225.280620 4701.765330,1235.662550 4709.980208,1245.052824 4721.917119,1234.670912 4713.702244,1225.280620"/>
    <poly id="1004077144" type="building" color="255,230,230" fill="1" layer="-1.00" shape="4726.055153,1242.181921 4715.961907,1250.954860 4725.611007,1261.993914 4735.704251,1253.220992 4726.055153,1242.181921"/>
    <poly id="1004077145" type="building" color="255,230,230" fill="1" layer="-1.00" shape="4738.668015,1266.568338 4733.593350,1260.773643 4727.667017,1265.921449 4732.741322,1271.727253 4738.668015,1266.568338"/>
    <poly id="1004077146" type="building" color="255,230,230" fill="1" layer="-1.00" shape="4738.668015,1266.568338 4732.741322,1271.727253 4732.017530,1272.360155 4739.768281,1281.223598 4746.418765,1275.431790 4738.668015,1266.568338"/>
    <poly id="1004077147" type="building" color="255,230,230" fill="1" layer="-1.00" shape="4771.351371,1293.365236 4778.052164,1288.075768 4773.017088,1281.748276 4770.525210,1283.714428 4771.904447,1285.461544 4767.702924,1288.785105 4771.351371,1293.365236"/>
    <poly id="1004077148" type="building" color="255,230,230" fill="1" layer="-1.00" shape="4752.815633,1283.361162 4759.663685,1291.983894 4765.597391,1287.292525 4767.140918,1289.222996 4767.702924,1288.785105 4771.904447,1285.461544 4770.525210,1283.714428 4763.512872,1274.908326 4752.815633,1283.361162"/>
    <poly id="1004077150" type="building" color="255,230,230" fill="1" layer="-1.00" shape="5096.416954,1863.892855 5097.832428,1866.564704 5099.129450,1869.010174 5105.018512,1865.908737 5102.298626,1860.791174 5096.416954,1863.892855"/>
    <poly id="1004077151" type="building" color="255,230,230" fill="1" layer="-1.00" shape="5081.764930,1863.571308 5086.521058,1872.526905 5097.832428,1866.564704 5096.416954,1863.892855 5093.076673,1857.597983 5081.764930,1863.571308"/>
    <poly id="1004077152" type="building" color="255,230,230" fill="1" layer="-1.00" shape="5104.424624,1908.446337 5116.202591,1901.564792 5111.840911,1894.135153 5102.024757,1899.867887 5104.408975,1903.928671 5102.447153,1905.077490 5104.424624,1908.446337"/>
    <poly id="1004077153" type="building" color="255,230,230" fill="1" layer="-1.00" shape="5087.449658,1899.459818 5093.747376,1910.167922 5102.447153,1905.077490 5104.408975,1903.928671 5102.024757,1899.867887 5098.118662,1893.220796 5095.387114,1894.822959 5094.468147,1893.268759 5089.624371,1896.092730 5090.542977,1897.658043 5087.449658,1899.459818"/>
    <poly id="1004077154" type="building" color="255,230,230" fill="1" layer="-1.00" shape="5052.727545,1974.953524 5054.015919,1984.708483 5065.477969,1983.201537 5064.189615,1973.446576 5052.727545,1974.953524"/>
    <poly id="1004077157" type="building" color="255,230,230" fill="1" layer="-1.00" shape="5218.079103,2084.948436 5222.893143,2092.114774 5228.393540,2088.444501 5223.579502,2081.278158 5218.079103,2084.948436"/>
    <poly id="1004077158" type="building" color="255,230,230" fill="1" layer="-1.00" shape="5223.897459,2110.572203 5226.939432,2115.110662 5235.549523,2109.361084 5232.507190,2104.833735 5223.897459,2110.572203"/>
    <poly id="1004077159" type="building" color="255,230,230" fill="1" layer="-1.00" shape="5231.320852,2139.630621 5224.100321,2144.757945 5227.398504,2149.382641 5234.619033,2144.255321 5231.320852,2139.630621"/>
    <poly id="1004077160" type="building" color="255,230,230" fill="1" layer="-1.00" shape="5229.488489,2130.681189 5218.949575,2138.159178 5223.805095,2144.959714 5224.100321,2144.757945 5231.320852,2139.630621 5234.343641,2137.492848 5229.488489,2130.681189"/>
    <poly id="1004077161" type="building" color="255,230,230" fill="1" layer="-1.00" shape="5593.968506,2712.464720 5587.637365,2720.958446 5592.933406,2724.892101 5594.427363,2722.882592 5596.934494,2724.744683 5601.779078,2718.260716 5598.975748,2716.177549 5593.968506,2712.464720"/>
    <poly id="1004077162" type="building" color="255,230,230" fill="1" layer="-1.00" shape="5595.637171,2699.446108 5588.787830,2708.623844 5593.968506,2712.464720 5598.975748,2716.177549 5605.825098,2706.999825 5595.637171,2699.446108"/>
    <poly id="1004077168" type="building" color="255,230,230" fill="1" layer="-1.00" shape="6223.195747,4484.929513 6235.081709,4486.376419 6236.871819,4471.726331 6224.978436,4470.279179 6223.195747,4484.929513"/>
    <poly id="1004077169" type="building" color="255,230,230" fill="1" layer="-1.00" shape="6216.713153,4500.994466 6216.218335,4510.891662 6228.095366,4511.481548 6228.590205,4501.584352 6216.713153,4500.994466"/>
    <poly id="1004077170" type="building" color="255,230,230" fill="1" layer="-1.00" shape="6188.644026,4464.681411 6185.197055,4470.075818 6195.981367,4476.916085 6200.068256,4470.507938 6199.031851,4469.850879 6201.426456,4466.090889 6192.903448,4460.682174 6189.861547,4465.455671 6188.644026,4464.681411"/>
    <poly id="1004077171" type="building" color="255,230,230" fill="1" layer="-1.00" shape="6211.074483,4439.682267 6203.379234,4453.471096 6212.897657,4458.756712 6220.593288,4444.956781 6211.074483,4439.682267"/>
    <poly id="1004085206" type="building" color="255,230,230" fill="1" layer="-1.00" shape="2697.441204,636.317464 2692.839738,641.287390 2696.764509,644.473104 2693.842830,647.160623 2686.422883,640.090964 2693.589559,633.389991 2697.441204,636.317464"/>
    <poly id="1004085207" type="building" color="255,230,230" fill="1" layer="-1.00" shape="2692.839738,641.287390 2696.764509,644.473104 2704.282789,650.555751 2713.566870,638.782788 2709.436466,635.545949 2702.568222,640.331749 2697.441204,636.317464 2692.839738,641.287390"/>
    <poly id="1004085208" type="building" color="255,230,230" fill="1" layer="-1.00" shape="2674.204084,671.083867 2681.497133,676.803224 2687.601063,669.077903 2680.315404,663.358776 2674.204084,671.083867"/>
    <poly id="1004085209" type="building" color="255,230,230" fill="1" layer="-1.00" shape="2680.315404,663.358776 2687.601063,669.077903 2688.366379,669.681037 2696.747292,659.058345 2688.472416,652.561991 2680.084473,663.173343 2680.315404,663.358776"/>
    <poly id="1004085210" type="building" color="255,230,230" fill="1" layer="-1.00" shape="2578.777422,625.350863 2587.019203,625.737981 2587.296090,619.883637 2579.054301,619.496519 2578.777422,625.350863"/>
    <poly id="1004085211" type="building" color="255,230,230" fill="1" layer="-1.00" shape="2563.726031,673.564555 2572.193565,669.686642 2573.042788,669.291143 2571.332908,665.598122 2562.023542,669.871775 2563.726031,673.564555"/>
    <poly id="1004085212" type="building" color="255,230,230" fill="1" layer="-1.00" shape="2603.191382,665.931698 2607.584984,669.733197 2612.380618,664.246537 2607.979976,660.433683 2603.191382,665.931698"/>
    <poly id="1004085213" type="building" color="255,230,230" fill="1" layer="-1.00" shape="2656.396431,679.957314 2660.748479,675.836025 2656.623853,671.497967 2652.271805,675.619259 2656.396431,679.957314"/>
    <poly id="1004085214" type="building" color="255,230,230" fill="1" layer="-1.00" shape="2624.585745,667.308828 2629.978281,672.967054 2635.086007,668.135730 2629.700866,662.477737 2624.585745,667.308828"/>
    <poly id="1004085215" type="building" color="255,230,230" fill="1" layer="-1.00" shape="2653.800789,640.477813 2647.761521,646.191496 2652.652463,651.332970 2658.691731,645.619292 2653.800789,640.477813"/>
    <poly id="1004085216" type="building" color="255,230,230" fill="1" layer="-1.00" shape="2673.368948,616.908253 2678.584492,620.702845 2683.795469,613.582985 2678.580278,609.777274 2673.368948,616.908253"/>
    <poly id="1004085217" type="building" color="255,230,230" fill="1" layer="-1.00" shape="2643.118330,615.368758 2648.829047,621.493377 2654.017823,616.675797 2648.299711,610.550936 2643.118330,615.368758"/>
    <poly id="1004085218" type="building" color="255,230,230" fill="1" layer="-1.00" shape="2636.896407,633.448356 2649.279949,621.975145 2648.829047,621.493377 2643.118330,615.368758 2640.356607,617.916810 2639.032408,616.505801 2629.410589,625.430976 2636.896407,633.448356"/>
    <poly id="1004085219" type="building" color="255,230,230" fill="1" layer="-1.00" shape="2603.031029,613.313156 2603.195941,624.310635 2614.616564,624.143498 2614.451674,613.146017 2603.031029,613.313156"/>
    <poly id="1004085220" type="building" color="255,230,230" fill="1" layer="-1.00" shape="2573.308209,610.322400 2572.911897,618.742941 2586.158137,619.357554 2586.547073,610.936775 2573.308209,610.322400"/>
    <poly id="1004085221" type="building" color="255,230,230" fill="1" layer="-1.00" shape="2612.373354,647.190618 2619.606871,653.152743 2627.762289,643.323761 2620.528767,637.361626 2612.373354,647.190618"/>
    <poly id="1004085222" type="building" color="255,230,230" fill="1" layer="-1.00" shape="2673.368948,616.908253 2670.349425,621.027854 2667.564396,619.002483 2664.351068,623.394002 2673.415164,629.982433 2679.640626,621.471083 2678.584492,620.702845 2673.368948,616.908253"/>
    <poly id="1004085223" type="building" color="255,230,230" fill="1" layer="-1.00" shape="2653.363966,640.018748 2653.800789,640.477813 2658.691731,645.619292 2659.493568,646.468360 2667.907415,638.505728 2661.777456,632.067221 2653.363966,640.018748"/>
    <poly id="1004085224" type="building" color="255,230,230" fill="1" layer="-1.00" shape="2655.526237,680.774904 2666.296421,692.090948 2674.679564,684.160719 2663.916775,672.844897 2660.748479,675.836025 2656.396431,679.957314 2655.526237,680.774904"/>
    <poly id="1004085225" type="building" color="255,230,230" fill="1" layer="-1.00" shape="2636.514037,657.790215 2643.510243,665.146585 2651.305387,657.775964 2644.309180,650.419585 2636.514037,657.790215"/>
    <poly id="1004085226" type="building" color="255,230,230" fill="1" layer="-1.00" shape="2615.683355,675.734228 2621.999159,682.378919 2630.908945,673.953766 2629.978281,672.967054 2624.585745,667.308828 2615.683355,675.734228"/>
    <poly id="1004085227" type="building" color="255,230,230" fill="1" layer="-1.00" shape="2592.606050,661.530775 2599.369130,667.388757 2605.026226,660.895076 2598.270538,655.037326 2592.606050,661.530775"/>
    <poly id="1004085228" type="building" color="255,230,230" fill="1" layer="-1.00" shape="2559.698670,675.415577 2563.221509,683.049687 2575.716392,677.320761 2572.193565,669.686642 2563.726031,673.564555 2559.698670,675.415577"/>
    <poly id="1004085229" type="building" color="255,230,230" fill="1" layer="-1.00" shape="2619.227158,710.593623 2621.988518,715.889167 2629.358699,712.065089 2626.597344,706.769542 2619.227158,710.593623"/>
    <poly id="1004085230" type="building" color="255,230,230" fill="1" layer="-1.00" shape="2612.152208,726.887975 2622.351713,733.846581 2629.915943,722.830415 2619.716425,715.871796 2612.152208,726.887975"/>
    <poly id="1068613976" type="building" color="255,230,230" fill="1" layer="-1.00" shape="4618.667010,1274.161657 4622.801568,1269.934614 4632.646721,1279.500122 4641.268281,1270.679227 4631.559289,1261.251640 4625.234790,1267.721723 4620.742691,1263.359056 4614.311075,1269.936930 4618.667010,1274.161657"/>
    <poly id="1068616454" type="building" color="255,230,230" fill="1" layer="-1.00" shape="4535.063748,1305.680694 4530.164746,1301.082369 4518.719588,1313.205143 4523.618587,1317.803459 4530.648286,1310.354838 4535.063748,1305.680694"/>
    <poly id="1068616455" type="building" color="255,230,230" fill="1" layer="-1.00" shape="4548.090769,1278.811843 4542.071578,1274.288389 4534.159844,1284.734608 4540.178668,1289.269167 4548.090769,1278.811843"/>
    <poly id="1068616456" type="building" color="255,230,230" fill="1" layer="-1.00" shape="4530.648286,1310.354838 4523.618587,1317.803459 4529.209035,1322.991653 4540.830758,1311.130530 4535.063748,1305.680694 4530.648286,1310.354838"/>
    <poly id="1068616457" type="building" color="255,230,230" fill="1" layer="-1.00" shape="4499.083604,1299.005101 4509.311419,1308.872084 4513.661573,1304.384945 4515.491579,1306.157756 4519.474176,1302.048094 4524.429075,1296.946421 4519.605805,1292.294936 4516.021787,1295.983629 4508.786869,1289.006413 4499.083604,1299.005101"/>
    <poly id="1068616458" type="building" color="255,230,230" fill="1" layer="-1.00" shape="4458.077705,1247.618452 4453.114205,1242.951351 4441.784361,1254.944508 4446.755253,1259.611839 4458.077705,1247.618452"/>
    <poly id="1068632297" type="building" color="255,230,230" fill="1" layer="-1.00" shape="4175.010164,1531.871599 4159.325953,1551.501122 4169.514981,1559.597216 4185.199209,1539.967720 4175.010164,1531.871599"/>
    <poly id="1069459658" type="building" color="255,230,230" fill="1" layer="-1.00" shape="3173.887876,3232.042782 3171.056596,3217.732685 3160.095096,3219.882478 3162.926402,3234.192570 3173.887876,3232.042782"/>
    <poly id="1069459665" type="building" color="255,230,230" fill="1" layer="-1.00" shape="3128.447466,3268.293897 3133.857335,3268.268073 3133.817323,3260.100441 3128.407446,3260.126265 3128.447466,3268.293897"/>
    <poly id="1085342138" type="building" color="255,230,230" fill="1" layer="-1.00" shape="5848.466943,3851.154723 5845.428656,3842.933205 5866.353498,3835.240151 5869.399515,3843.450808 5848.466943,3851.154723"/>
    <poly id="1085342139" type="building" color="255,230,230" fill="1" layer="-1.00" shape="5829.511866,3858.801043 5825.020396,3845.469593 5838.747943,3840.878735 5841.208904,3848.202389 5845.480542,3846.773417 5847.159785,3851.757253 5842.529009,3853.307983 5842.872855,3854.331715 5829.511866,3858.801043"/>
    <poly id="1085626487" type="building" color="255,230,230" fill="1" layer="-1.00" shape="3527.099938,1162.526491 3533.831467,1169.085588 3542.620375,1161.447854 3532.082838,1149.425447 3528.750836,1154.268827 3530.997659,1158.502437 3527.099938,1162.526491"/>
    <poly id="1086023125" type="building" color="255,230,230" fill="1" layer="-1.00" shape="5684.940019,2636.720859 5691.803495,2631.193044 5682.896936,2620.209724 5676.033094,2625.748664 5684.940019,2636.720859"/>
    <poly id="1086947808" type="building" color="255,230,230" fill="1" layer="-1.00" shape="5834.982322,4640.101374 5834.706484,4625.928767 5838.837454,4625.841480 5845.854943,4625.715182 5845.913347,4628.676648 5849.170826,4628.605276 5849.380861,4639.137484 5847.722928,4639.161087 5847.384777,4639.773081 5844.971233,4639.827577 5845.030114,4643.000456 5839.936986,4643.100743 5839.875555,4640.005664 5834.982322,4640.101374"/>
    <poly id="1099291909" type="building" color="255,230,230" fill="1" layer="-1.00" shape="3274.864349,3753.574751 3281.178724,3754.624116 3281.995098,3749.732847 3275.680359,3748.694596 3274.864349,3753.574751"/>
    <poly id="1099291910" type="building" color="255,230,230" fill="1" layer="-1.00" shape="3216.424981,3748.851825 3221.589614,3743.800451 3219.018653,3741.158558 3211.872286,3748.237650 3231.832769,3770.532551 3233.996554,3768.366080 3216.424981,3748.851825"/>
    <poly id="1099291911" type="building" color="255,230,230" fill="1" layer="-1.00" shape="3248.593947,3792.457266 3258.257215,3797.030310 3260.995827,3791.266506 3251.339583,3786.704810 3248.593947,3792.457266"/>
    <poly id="1144321539" type="building" color="255,230,230" fill="1" layer="-1.00" shape="1587.651640,1733.608011 1583.860955,1740.362495 1590.740797,1743.942283 1594.581468,1737.245028 1587.651640,1733.608011"/>
    <poly id="1144321540" type="building" color="255,230,230" fill="1" layer="-1.00" shape="1458.641435,1724.502498 1471.056421,1724.409442 1470.931553,1708.851884 1458.516533,1708.944941 1458.641435,1724.502498"/>
    <poly id="1144321541" type="building" color="255,230,230" fill="1" layer="-1.00" shape="1441.988920,1718.229945 1448.261573,1718.808508 1448.862833,1712.263613 1442.590173,1711.685049 1441.988920,1718.229945"/>
    <poly id="1144321542" type="building" color="255,230,230" fill="1" layer="-1.00" shape="1429.628282,1717.779647 1440.291841,1719.688836 1442.558226,1707.122540 1431.894642,1705.213348 1429.628282,1717.779647"/>
    <poly id="1144322616" type="building" color="255,230,230" fill="1" layer="-1.00" shape="3283.188183,895.546847 3290.904837,886.038393 3304.447115,896.966737 3296.730452,906.475174 3283.188183,895.546847"/>
    <poly id="1144322617" type="building" color="255,230,230" fill="1" layer="-1.00" shape="3546.772529,1053.739511 3552.961255,1044.104171 3566.328420,1052.635490 3560.302865,1062.031319 3555.385449,1058.890781 3553.148299,1062.378786 3548.223485,1059.238015 3550.304842,1055.989745 3546.772529,1053.739511"/>
    <poly id="1144322618" type="building" color="255,230,230" fill="1" layer="-1.00" shape="3416.961758,1194.851516 3429.437966,1204.377342 3440.533998,1189.927059 3432.789642,1184.014060 3428.616863,1189.453400 3423.892392,1185.840792 3416.961758,1194.851516"/>
    <poly id="1144322619" type="building" color="255,230,230" fill="1" layer="-1.00" shape="3457.961771,1153.607606 3470.176299,1160.922164 3475.534021,1152.027604 3463.319479,1144.713035 3457.961771,1153.607606"/>
    <poly id="1144322620" type="building" color="255,230,230" fill="1" layer="-1.00" shape="3533.891436,1177.543138 3544.089822,1167.748016 3548.674100,1172.491032 3538.468319,1182.285907 3533.891436,1177.543138"/>
    <poly id="1144322621" type="building" color="255,230,230" fill="1" layer="-1.00" shape="3558.572254,1182.534681 3567.481076,1173.476755 3559.875092,1166.032683 3550.965914,1175.101736 3558.572254,1182.534681"/>
    <poly id="1144324604" type="building" color="255,230,230" fill="1" layer="-1.00" shape="3565.432092,1036.841271 3576.001799,1026.101365 3584.526134,1034.454050 3573.956782,1045.182826 3565.432092,1036.841271"/>
    <poly id="1144327547" type="building" color="255,230,230" fill="1" layer="-1.00" shape="3539.204428,3600.898857 3547.188463,3600.200086 3546.368727,3590.994757 3538.384679,3591.693529 3539.204428,3600.898857"/>
    <poly id="1144327548" type="building" color="255,230,230" fill="1" layer="-1.00" shape="3614.383631,3595.507693 3636.861173,3593.708946 3636.210443,3585.688403 3630.008575,3586.188784 3629.680048,3582.161722 3613.411363,3583.471446 3614.383631,3595.507693"/>
    <poly id="1144331795" type="building" color="255,230,230" fill="1" layer="-1.00" shape="3709.046287,3933.814321 3714.671524,3936.032358 3716.596189,3931.199241 3710.971308,3928.970088 3709.046287,3933.814321"/>
    <poly id="1149961887" type="building" color="255,230,230" fill="1" layer="-1.00" shape="731.816705,1916.150324 736.232340,1908.558546 727.511775,1903.508327 723.096149,1911.100111 731.816705,1916.150324"/>
    <poly id="1149961888" type="building" color="255,230,230" fill="1" layer="-1.00" shape="778.575607,1828.466803 777.217016,1830.459549 780.882517,1832.957025 782.241109,1830.964280 778.575607,1828.466803"/>
    <poly id="1149961889" type="building" color="255,230,230" fill="1" layer="-1.00" shape="803.141916,1880.737307 805.244913,1877.911590 803.133383,1876.353583 801.030387,1879.179301 803.141916,1880.737307"/>
    <poly id="1149961890" type="building" color="255,230,230" fill="1" layer="-1.00" shape="1446.311751,1636.161045 1450.891174,1635.762117 1450.599436,1632.381750 1446.020010,1632.780678 1446.311751,1636.161045"/>
    <poly id="1149961891" type="building" color="255,230,230" fill="1" layer="-1.00" shape="1460.232680,1697.618270 1460.271607,1694.081577 1456.431730,1694.036836 1456.392806,1697.573529 1460.232680,1697.618270"/>
    <poly id="1149961892" type="building" color="255,230,230" fill="1" layer="-1.00" shape="1397.504419,1751.232240 1397.627001,1753.884041 1401.407388,1753.704334 1401.277060,1751.063411 1397.504419,1751.232240"/>
    <poly id="1149961893" type="building" color="255,230,230" fill="1" layer="-1.00" shape="1330.994720,1686.116449 1332.667079,1680.328891 1328.757730,1679.213965 1327.085730,1684.990410 1330.994720,1686.116449"/>
    <poly id="1149961894" type="building" color="255,230,230" fill="1" layer="-1.00" shape="1364.602667,1698.225574 1366.676133,1690.770864 1359.420399,1688.759195 1357.339549,1696.213671 1364.602667,1698.225574"/>
    <poly id="1149961895" type="building" color="255,230,230" fill="1" layer="-1.00" shape="1440.518092,1689.423349 1440.174674,1694.151882 1445.026025,1694.507048 1445.369802,1689.767402 1440.518092,1689.423349"/>
    <poly id="1149961896" type="building" color="255,230,230" fill="1" layer="-1.00" shape="1518.260990,1719.809208 1518.303689,1715.460466 1513.938156,1715.421145 1513.895460,1719.769887 1518.260990,1719.809208"/>
    <poly id="1149961897" type="building" color="255,230,230" fill="1" layer="-1.00" shape="1528.750192,1727.175662 1536.967040,1727.827560 1537.323134,1723.399824 1529.106635,1722.736812 1528.750192,1727.175662"/>
    <poly id="1149961898" type="building" color="255,230,230" fill="1" layer="-1.00" shape="1506.822034,1742.407032 1510.892151,1742.425786 1510.905441,1738.765891 1506.835321,1738.747137 1506.822034,1742.407032"/>
    <poly id="1149961899" type="building" color="255,230,230" fill="1" layer="-1.00" shape="1858.678736,3099.281618 1858.455137,3092.398801 1851.566339,3092.623265 1851.789946,3099.506081 1858.678736,3099.281618"/>
    <poly id="1149961900" type="building" color="255,230,230" fill="1" layer="-1.00" shape="1853.477892,3124.670736 1853.602972,3128.390711 1859.195643,3128.202631 1859.063175,3124.482419 1853.477892,3124.670736"/>
    <poly id="1149961901" type="building" color="255,230,230" fill="1" layer="-1.00" shape="1833.884929,3185.657341 1839.118703,3184.890346 1838.315552,3179.468688 1833.081772,3180.235684 1833.884929,3185.657341"/>
    <poly id="1149961902" type="building" color="255,230,230" fill="1" layer="-1.00" shape="1765.580132,3212.953967 1764.389107,3208.320957 1761.382448,3209.092538 1762.573475,3213.725547 1765.580132,3212.953967"/>
    <poly id="1149961903" type="building" color="255,230,230" fill="1" layer="-1.00" shape="1765.229417,3203.797459 1768.673265,3203.006495 1767.405786,3197.525488 1763.969327,3198.316689 1765.229417,3203.797459"/>
    <poly id="1149961904" type="building" color="255,230,230" fill="1" layer="-1.00" shape="1798.815988,3193.145983 1806.513220,3190.777837 1803.944684,3182.484886 1796.247442,3184.853035 1798.815988,3193.145983"/>
    <poly id="1149961905" type="building" color="255,230,230" fill="1" layer="-1.00" shape="1782.932002,3180.811012 1786.535010,3179.902770 1785.253312,3174.866330 1781.657693,3175.774809 1782.932002,3180.811012"/>
    <poly id="1149961906" type="building" color="255,230,230" fill="1" layer="-1.00" shape="1882.910070,2996.522117 1887.448315,2994.141915 1886.025380,2991.437317 1881.487133,2993.817520 1882.910070,2996.522117"/>
    <poly id="1149961907" type="building" color="255,230,230" fill="1" layer="-1.00" shape="1859.399201,3003.980047 1858.573415,2998.802429 1854.348710,2999.479340 1855.174856,3004.645844 1859.399201,3003.980047"/>
    <poly id="1149961908" type="building" color="255,230,230" fill="1" layer="-1.00" shape="1817.257711,3002.831205 1822.718631,3001.214781 1821.790743,2998.069896 1816.330176,2999.675206 1817.257711,3002.831205"/>
    <poly id="1149961909" type="building" color="255,230,230" fill="1" layer="-1.00" shape="1784.255697,3099.224473 1788.237874,3096.181114 1784.330567,3091.105144 1780.348034,3094.159620 1784.255697,3099.224473"/>
    <poly id="1149961910" type="building" color="255,230,230" fill="1" layer="-1.00" shape="1785.997332,3083.648675 1782.440529,3079.874501 1778.580652,3083.489187 1782.130063,3087.263122 1785.997332,3083.648675"/>
    <poly id="1149961911" type="building" color="255,230,230" fill="1" layer="-1.00" shape="1578.448155,3016.708929 1585.484201,3013.963318 1583.342443,3008.510045 1576.313785,3011.255895 1578.448155,3016.708929"/>
    <poly id="1149961912" type="building" color="255,230,230" fill="1" layer="-1.00" shape="1573.784102,3001.039583 1579.660242,2998.468273 1577.591120,2993.751617 1571.707940,2996.311578 1573.784102,3001.039583"/>
    <poly id="1149961913" type="building" color="255,230,230" fill="1" layer="-1.00" shape="1575.404713,3004.740595 1582.901708,3001.464560 1581.281100,2997.763546 1579.660242,2998.468273 1573.784102,3001.039583 1575.404713,3004.740595"/>
    <poly id="1149961914" type="building" color="255,230,230" fill="1" layer="-1.00" shape="1734.816775,2960.307446 1739.264926,2957.735110 1736.879959,2953.642444 1732.431451,2956.225897 1734.816775,2960.307446"/>
    <poly id="1149961915" type="building" color="255,230,230" fill="1" layer="-1.00" shape="1831.473349,2933.228026 1833.372350,2937.705701 1840.341114,2934.757979 1838.434725,2930.280065 1831.473349,2933.228026"/>
    <poly id="1149961916" type="building" color="255,230,230" fill="1" layer="-1.00" shape="1859.492754,2914.388134 1862.022255,2912.577759 1859.224373,2908.672080 1856.687480,2910.482220 1859.492754,2914.388134"/>
    <poly id="1149961917" type="building" color="255,230,230" fill="1" layer="-1.00" shape="1862.807807,2913.003434 1869.399386,2908.664087 1865.488768,2902.764662 1858.897186,2907.104013 1862.807807,2913.003434"/>
    <poly id="1149961918" type="building" color="255,230,230" fill="1" layer="-1.00" shape="1955.620809,2875.211361 1963.659074,2870.529062 1958.424258,2861.616597 1950.385986,2866.298903 1955.620809,2875.211361"/>
    <poly id="1149961919" type="building" color="255,230,230" fill="1" layer="-1.00" shape="1963.393383,2879.053936 1968.196488,2893.126013 1973.612937,2891.285788 1968.816881,2877.225058 1963.393383,2879.053936"/>
    <poly id="1149961920" type="building" color="255,230,230" fill="1" layer="-1.00" shape="2027.614694,2835.017939 2034.110227,2832.066404 2031.212286,2825.743159 2024.716391,2828.705811 2027.614694,2835.017939"/>
    <poly id="1149961921" type="building" color="255,230,230" fill="1" layer="-1.00" shape="2035.191526,2827.650786 2038.819023,2825.986929 2037.262240,2822.610462 2033.634741,2824.274321 2035.191526,2827.650786"/>
    <poly id="1149961922" type="building" color="255,230,230" fill="1" layer="-1.00" shape="2250.019755,2946.196917 2247.144970,2938.238809 2238.079598,2941.485923 2240.947001,2949.443789 2250.019755,2946.196917"/>
    <poly id="1149961923" type="building" color="255,230,230" fill="1" layer="-1.00" shape="2236.223179,2929.232598 2239.190083,2928.092834 2238.212512,2925.580439 2235.252999,2926.720441 2236.223179,2929.232598"/>
    <poly id="1149961924" type="building" color="255,230,230" fill="1" layer="-1.00" shape="2255.121126,2879.917924 2261.368294,2878.482897 2260.082573,2872.889918 2253.828008,2874.324710 2255.121126,2879.917924"/>
    <poly id="1149961925" type="building" color="255,230,230" fill="1" layer="-1.00" shape="2213.108143,2841.510362 2213.192528,2843.493443 2215.208236,2843.402344 2215.123495,2841.430378 2213.108143,2841.510362"/>
    <poly id="1149961926" type="building" color="255,230,230" fill="1" layer="-1.00" shape="2225.980699,2855.685791 2225.853965,2848.794920 2222.669913,2848.859660 2222.797007,2855.739417 2225.980699,2855.685791"/>
    <poly id="1149961927" type="building" color="255,230,230" fill="1" layer="-1.00" shape="2238.849195,2804.019254 2245.454196,2803.196472 2244.680487,2797.097019 2238.082515,2797.931153 2238.849195,2804.019254"/>
    <poly id="1149961928" type="building" color="255,230,230" fill="1" layer="-1.00" shape="2263.509489,2712.812081 2264.321602,2698.341356 2258.027799,2697.994783 2257.215703,2712.465508 2263.509489,2712.812081"/>
    <poly id="1149961929" type="building" color="255,230,230" fill="1" layer="-1.00" shape="2246.557726,2696.836856 2247.212455,2684.041062 2238.442845,2683.592831 2237.780744,2696.388388 2246.557726,2696.836856"/>