<?xml version="1.0" encoding="UTF-8"?>

<!-- generated on 12/17/25 17:50:34 by Eclipse SUMO polyconvert Version 1.5.0
<configuration xmlns:xsi="http://www.w3.org/2001/XMLSchema-instance" xsi:noNamespaceSchemaLocation="http://sumo.dlr.de/xsd/polyconvertConfiguration.xsd">

    <input>
        <net-file value="grossmehring.net.xml"/>
        <osm-files value="grossmehring_raw.osm"/>
    </input>

    <output>
        <output-file value="grossmehring.poly.xml"/>
    </output>

    <processing>
        <poi-layer-offset value="5"/>
    </processing>

</configuration>
-->

<additional xmlns:xsi="http://www.w3.org/2001/XMLSchema-instance" xsi:noNamespaceSchemaLocation="http://sumo.dlr.de/xsd/additional_file.xsd">
    <location netOffset="-682394.69,-5400848.40" convBoundary="0.00,-57.25,9247.71,11124.66" origBoundary="11.483060,48.732868,11.610051,48.832172" projParameter="+proj=utm +zone=32 +ellps=WGS84 +datum=WGS84 +units=m +no_defs"/>

    <poly id="1066137641" type="building" color="255,230,230" fill="1" layer="-1.00" shape="4778.191483,3974.281703 4775.529572,3974.259405 4775.469398,3981.334218 4782.940446,3981.395024 4782.989675,3975.966653 4778.180529,3975.928145 4778.191483,3974.281703"/>
    <poly id="1066137642" type="building" color="255,230,230" fill="1" layer="-1.00" shape="4777.030364,3939.515223 4771.086367,3939.538898 4771.117446,3947.184245 4777.061806,3947.149455 4777.052205,3945.457817 4777.030364,3939.515223"/>
    <poly id="1066137643" type="building" color="255,230,230" fill="1" layer="-1.00" shape="4793.116119,3937.994918 4796.301560,3937.979106 4796.341167,3946.247857 4793.155731,3946.263669 4793.148374,3945.384383 4793.116119,3937.994918"/>
    <poly id="1066137644" type="building" color="255,230,230" fill="1" layer="-1.00" shape="4786.085746,3945.426248 4793.148374,3945.384383 4793.116119,3937.994918 4793.091419,3932.797742 4786.021800,3932.828248 4786.085746,3945.426248"/>
    <poly id="1076627084" type="amenity" color="237,199,199" fill="1" layer="-1.00" shape="1589.493270,5389.195329 1601.486306,5398.580357 1609.914891,5387.797719 1618.194522,5394.278904 1622.953750,5388.193415 1622.166364,5382.848917 1600.854191,5366.169598 1593.776871,5375.216432 1597.906055,5378.445533 1589.493270,5389.195329"/>
    <poly id="1076627084#1" type="building" color="255,230,230" fill="1" layer="-1.00" shape="1589.493270,5389.195329 1601.486306,5398.580357 1609.914891,5387.797719 1618.194522,5394.278904 1622.953750,5388.193415 1622.166364,5382.848917 1600.854191,5366.169598 1593.776871,5375.216432 1597.906055,5378.445533 1589.493270,5389.195329"/>
    <poly id="1125513691" type="building" color="255,230,230" fill="1" layer="-1.00" shape="4296.430839,7471.488321 4298.374554,7477.995851 4291.610474,7480.017549 4289.666752,7473.510021 4296.430839,7471.488321"/>
    <poly id="1144362108" type="building" color="255,230,230" fill="1" layer="-1.00" shape="2865.938224,3657.181797 2861.201123,3646.966264 2855.493753,3649.614633 2857.704357,3654.383361 2848.530700,3658.641628 2851.057212,3664.088424 2858.213907,3660.764794 2865.938224,3657.181797"/>
    <poly id="1144362109" type="building" color="255,230,230" fill="1" layer="-1.00" shape="2861.447519,3667.737135 2869.171829,3664.154142 2865.938224,3657.181797 2858.213907,3660.764794 2861.447519,3667.737135"/>
    <poly id="1144362111" type="building" color="255,230,230" fill="1" layer="-1.00" shape="2486.061475,3742.164717 2487.594165,3745.197352 2495.193932,3741.364959 2492.018344,3735.073506 2486.774878,3737.715313 2488.417781,3740.974127 2486.061475,3742.164717"/>
    <poly id="1144362112" type="building" color="255,230,230" fill="1" layer="-1.00" shape="2480.151980,3745.151705 2486.061475,3742.164717 2488.417781,3740.974127 2486.774878,3737.715313 2485.421466,3735.044660 2488.099223,3733.697790 2485.158376,3727.870298 2471.963198,3734.533179 2474.607214,3739.772261 2476.866165,3738.634083 2480.151980,3745.151705"/>
    <poly id="1144362113" type="building" color="255,230,230" fill="1" layer="-1.00" shape="2951.545123,3717.943601 2949.964935,3714.575446 2953.521241,3712.912963 2955.101796,3716.270005 2951.545123,3717.943601"/>
    <poly id="1144362114" type="building" color="255,230,230" fill="1" layer="-1.00" shape="2950.457400,3707.259155 2954.449438,3705.321809 2949.608924,3695.347552 2945.616881,3697.284902 2950.457400,3707.259155"/>
    <poly id="1144362115" type="building" color="255,230,230" fill="1" layer="-1.00" shape="2941.976273,3716.146733 2947.545126,3713.460483 2945.989906,3710.226678 2940.413702,3712.912686 2941.976273,3716.146733"/>
    <poly id="1144362116" type="building" color="255,230,230" fill="1" layer="-1.00" shape="2914.846157,3715.125665 2919.251490,3712.923813 2922.816716,3720.096336 2918.411387,3722.298186 2914.846157,3715.125665"/>
    <poly id="1144362117" type="building" color="255,230,230" fill="1" layer="-1.00" shape="2801.434887,3820.791850 2803.873912,3826.436016 2807.149789,3825.020081 2803.850128,3817.377971 2800.574248,3818.793908 2801.434887,3820.791850"/>
    <poly id="1144362118" type="building" color="255,230,230" fill="1" layer="-1.00" shape="2775.252400,3770.488606 2778.647698,3769.020971 2776.167844,3763.275327 2772.764829,3764.753835 2775.252400,3770.488606"/>
    <poly id="1144362119" type="building" color="255,230,230" fill="1" layer="-1.00" shape="2772.268578,3787.970269 2774.434734,3792.748620 2779.632000,3790.394846 2777.466216,3785.605378 2772.268578,3787.970269"/>
    <poly id="1144362120" type="building" color="255,230,230" fill="1" layer="-1.00" shape="2764.054510,3781.244839 2767.982405,3789.909130 2772.268578,3787.970269 2777.466216,3785.605378 2773.537964,3776.952195 2764.054510,3781.244839"/>
    <poly id="1144362121" type="building" color="255,230,230" fill="1" layer="-1.00" shape="2793.009568,3763.120659 2797.098116,3761.375557 2801.760605,3772.289559 2797.679410,3774.034901 2795.043833,3767.883526 2793.009568,3763.120659"/>
    <poly id="1144362122" type="building" color="255,230,230" fill="1" layer="-1.00" shape="2826.620067,3773.679994 2823.358225,3766.228282 2827.381023,3764.469898 2830.643230,3771.910498 2826.620067,3773.679994"/>
    <poly id="1144362123" type="building" color="255,230,230" fill="1" layer="-1.00" shape="2809.106085,3752.148325 2811.203157,3757.013419 2800.883496,3761.456352 2796.108587,3750.382854 2806.428263,3745.939912 2809.106085,3752.148325"/>
    <poly id="1144362124" type="building" color="255,230,230" fill="1" layer="-1.00" shape="2841.554380,3734.718614 2846.680464,3732.295780 2844.460331,3727.593500 2839.334245,3730.016336 2841.554380,3734.718614"/>
    <poly id="1144362125" type="building" color="255,230,230" fill="1" layer="-1.00" shape="2844.937435,3742.508156 2848.547684,3740.992044 2846.372404,3735.823920 2842.761784,3737.351148 2844.937435,3742.508156"/>
    <poly id="1144362126" type="building" color="255,230,230" fill="1" layer="-1.00" shape="2816.402854,3751.254940 2817.379575,3753.523772 2821.080554,3751.932759 2820.104202,3749.652812 2816.402854,3751.254940"/>
    <poly id="1144362127" type="building" color="255,230,230" fill="1" layer="-1.00" shape="2815.582980,3749.358487 2809.106085,3752.148325 2806.428263,3745.939912 2812.905531,3743.138956 2815.582980,3749.358487"/>
    <poly id="1144362128" type="building" color="255,230,230" fill="1" layer="-1.00" shape="2816.402854,3751.254940 2820.104202,3749.652812 2822.409876,3748.660965 2818.912192,3740.556092 2812.905531,3743.138956 2815.582980,3749.358487 2816.402854,3751.254940"/>
    <poly id="1144362129" type="building" color="255,230,230" fill="1" layer="-1.00" shape="2868.314542,3740.244586 2869.669234,3743.093414 2873.615292,3741.210125 2870.347939,3734.370178 2866.401878,3736.253469 2868.314542,3740.244586"/>
    <poly id="1144362130" type="building" color="255,230,230" fill="1" layer="-1.00" shape="2884.114729,3747.777738 2885.451051,3750.514694 2879.664773,3753.327323 2876.909845,3747.672662 2882.696126,3744.860029 2884.114729,3747.777738"/>
    <poly id="1144362131" type="building" color="255,230,230" fill="1" layer="-1.00" shape="2936.596880,3750.417310 2933.074762,3752.158822 2928.256654,3742.396736 2931.786123,3740.655464 2932.840693,3742.793375 2936.596880,3750.417310"/>
    <poly id="1144362132" type="building" color="255,230,230" fill="1" layer="-1.00" shape="2921.717188,3740.633488 2926.283044,3738.470339 2923.725413,3733.078105 2919.166902,3735.241499 2921.717188,3740.633488"/>
    <poly id="1144362133" type="building" color="255,230,230" fill="1" layer="-1.00" shape="2918.640864,3776.437981 2924.098701,3773.770288 2925.545559,3776.722327 2920.087724,3779.390018 2918.640864,3776.437981"/>
    <poly id="1144362134" type="building" color="255,230,230" fill="1" layer="-1.00" shape="2920.291809,3755.907966 2926.502063,3752.953645 2927.843133,3755.768657 2921.632881,3758.722977 2920.291809,3755.907966"/>
    <poly id="1144362135" type="building" color="255,230,230" fill="1" layer="-1.00" shape="2919.040361,3753.273955 2920.291809,3755.907966 2926.502063,3752.953645 2925.250617,3750.319632 2919.040361,3753.273955"/>
    <poly id="1144362136" type="building" color="255,230,230" fill="1" layer="-1.00" shape="2914.982243,3755.209135 2919.040361,3753.273955 2925.250617,3750.319632 2922.424482,3744.373289 2912.148753,3749.262553 2914.982243,3755.209135"/>
    <poly id="1144362137" type="building" color="255,230,230" fill="1" layer="-1.00" shape="2912.148753,3749.262553 2922.424482,3744.373289 2919.625522,3738.494608 2909.357132,3743.384121 2912.148753,3749.262553"/>
    <poly id="1144362138" type="building" color="255,230,230" fill="1" layer="-1.00" shape="2920.568429,3766.432016 2930.642443,3761.636228 2927.843133,3755.768657 2921.632881,3758.722977 2917.776827,3760.553579 2920.568429,3766.432016"/>
    <poly id="1144362139" type="building" color="255,230,230" fill="1" layer="-1.00" shape="2889.246552,3781.383909 2892.460033,3779.854686 2888.030531,3770.572835 2884.816678,3772.113175 2889.246552,3781.383909"/>
    <poly id="1144362140" type="building" color="255,230,230" fill="1" layer="-1.00" shape="2874.506905,3782.253254 2871.973452,3783.460074 2868.486101,3776.156640 2871.019557,3774.949819 2872.106462,3777.222310 2874.506905,3782.253254"/>
    <poly id="1144362141" type="building" color="255,230,230" fill="1" layer="-1.00" shape="2809.874565,3782.038235 2823.400668,3776.277236 2818.588724,3764.991079 2805.062601,3770.752090 2809.874565,3782.038235"/>
    <poly id="1144362142" type="building" color="255,230,230" fill="1" layer="-1.00" shape="2810.716291,3801.716122 2814.119296,3800.237637 2810.249167,3791.386065 2806.853137,3792.875910 2810.716291,3801.716122"/>
    <poly id="1144362143" type="building" color="255,230,230" fill="1" layer="-1.00" shape="2645.486815,3901.063525 2664.079853,3894.423840 2662.275511,3889.379331 2643.689807,3896.019266 2645.486815,3901.063525"/>
    <poly id="1144362144" type="building" color="255,230,230" fill="1" layer="-1.00" shape="2615.725259,3912.251968 2637.139201,3904.603931 2635.355043,3899.615733 2613.941085,3907.263778 2615.725259,3912.251968"/>
    <poly id="1144362145" type="building" color="255,230,230" fill="1" layer="-1.00" shape="2588.113629,3922.265447 2609.527490,3914.617305 2607.743312,3909.629117 2586.329803,3917.266151 2588.113629,3922.265447"/>
    <poly id="1144362147" type="building" color="255,230,230" fill="1" layer="-1.00" shape="2219.915695,3874.931015 2216.707540,3847.330861 2226.933749,3846.143953 2230.141854,3873.744114 2219.915695,3874.931015"/>
    <poly id="1144362148" type="building" color="255,230,230" fill="1" layer="-1.00" shape="2198.441015,3877.081983 2195.172146,3849.535478 2206.972112,3848.133418 2210.233578,3875.679688 2198.441015,3877.081983"/>
    <poly id="1144362149" type="building" color="255,230,230" fill="1" layer="-1.00" shape="2505.053731,3860.770009 2516.871792,3854.595789 2511.649352,3844.587069 2499.831277,3850.761300 2505.053731,3860.770009"/>
    <poly id="1144362150" type="building" color="255,230,230" fill="1" layer="-1.00" shape="2511.263637,3878.956192 2520.309186,3874.548525 2515.597407,3864.890483 2506.551847,3869.298158 2511.263637,3878.956192"/>
    <poly id="1144362151" type="building" color="255,230,230" fill="1" layer="-1.00" shape="2520.551242,3897.266368 2531.105158,3891.729133 2525.722247,3881.459174 2515.168318,3886.996419 2520.551242,3897.266368"/>
    <poly id="1144362152" type="building" color="255,230,230" fill="1" layer="-1.00" shape="2405.817137,3887.244163 2410.747905,3890.277759 2409.915858,3891.641125 2415.034343,3894.781068 2415.765002,3893.592383 2420.926464,3896.767132 2426.965715,3886.952517 2425.682512,3886.164628 2426.568565,3884.725161 2424.132204,3883.220441 2423.339092,3884.518330 2415.675865,3879.814449 2416.453180,3878.549417 2413.994772,3877.043973 2413.240601,3878.276389 2411.864084,3877.418660 2405.817137,3887.244163"/>
    <poly id="1144362153" type="building" color="255,230,230" fill="1" layer="-1.00" shape="2428.783956,3898.706864 2428.038862,3892.762785 2433.954822,3892.023581 2434.707257,3897.967904 2428.783956,3898.706864"/>
    <poly id="1144362154" type="building" color="255,230,230" fill="1" layer="-1.00" shape="2371.780565,3891.816861 2382.545928,3886.330846 2387.070170,3895.214821 2372.781517,3902.487145 2369.853150,3896.726887 2368.264607,3893.603425 2371.780565,3891.816861"/>
    <poly id="1144362155" type="building" color="255,230,230" fill="1" layer="-1.00" shape="2370.883060,3890.040312 2371.780565,3891.816861 2368.264607,3893.603425 2369.853150,3896.726887 2366.426830,3898.471904 2363.933064,3893.582766 2370.883060,3890.040312"/>
    <poly id="1144362156" type="building" color="255,230,230" fill="1" layer="-1.00" shape="2374.477222,3886.331396 2383.870207,3883.871054 2381.754021,3875.789860 2372.353310,3878.261077 2374.477222,3886.331396"/>
    <poly id="1144362157" type="building" color="255,230,230" fill="1" layer="-1.00" shape="2314.866650,3862.610046 2325.012948,3855.601364 2317.971724,3845.421523 2307.832765,3852.430461 2314.866650,3862.610046"/>
    <poly id="1144362158" type="building" color="255,230,230" fill="1" layer="-1.00" shape="2295.838682,3879.094853 2299.930634,3877.015711 2297.921018,3873.054987 2293.822084,3875.122774 2295.838682,3879.094853"/>
    <poly id="1144362159" type="building" color="255,230,230" fill="1" layer="-1.00" shape="2291.495827,3853.348730 2311.590741,3838.412375 2302.724338,3826.481025 2300.462174,3828.164376 2297.391584,3824.035106 2281.519371,3835.828499 2284.590333,3839.946646 2282.622062,3841.417169 2291.495827,3853.348730"/>
    <poly id="1144362160" type="building" color="255,230,230" fill="1" layer="-1.00" shape="2394.284364,3760.084396 2392.429075,3756.796344 2398.724600,3753.254550 2400.579887,3756.542605 2394.284364,3760.084396"/>
    <poly id="1144362161" type="building" color="255,230,230" fill="1" layer="-1.00" shape="2421.479578,3780.276592 2417.755075,3773.232681 2424.073380,3769.891952 2427.805226,3776.936109 2421.479578,3780.276592"/>
    <poly id="1144362162" type="building" color="255,230,230" fill="1" layer="-1.00" shape="2395.197478,3785.216626 2396.680595,3787.746891 2385.158292,3794.543106 2384.113826,3792.761701 2380.670549,3794.795450 2377.612458,3789.620628 2381.235744,3787.481554 2374.576922,3776.190465 2385.919238,3769.499551 2387.423673,3772.052770 2395.197478,3785.216626"/>
    <poly id="1144362166" type="building" color="255,230,230" fill="1" layer="-1.00" shape="2636.061315,4016.804675 2660.774199,4005.916684 2666.547877,4019.037067 2646.283722,4027.958082 2643.478784,4021.589766 2639.030462,4023.545604 2636.061315,4016.804675"/>
    <poly id="1147380141" type="building" color="255,230,230" fill="1" layer="-1.00" shape="2075.935918,5902.923906 2090.714415,5906.938743 2087.969821,5917.029213 2073.191349,5913.014383 2075.935918,5902.923906"/>
    <poly id="1147380142" type="building" color="255,230,230" fill="1" layer="-1.00" shape="2058.084553,5908.922000 2060.829462,5898.820401 2075.935918,5902.923906 2073.191349,5913.014383 2058.084553,5908.922000"/>
    <poly id="1147380143" type="building" color="255,230,230" fill="1" layer="-1.00" shape="2063.381922,5975.000880 2069.524161,5976.694530 2070.525783,5973.077984 2064.383906,5971.373217 2063.381922,5975.000880"/>
    <poly id="1147380144" type="building" color="255,230,230" fill="1" layer="-1.00" shape="2033.852112,5968.162836 2047.056520,5971.747329 2049.843611,5961.480216 2036.639180,5957.895717 2033.852112,5968.162836"/>
    <poly id="1147380145" type="building" color="255,230,230" fill="1" layer="-1.00" shape="1980.374545,5955.772866 1970.627542,5953.248326 1969.245282,5958.599242 1989.497955,5963.829132 1995.609370,5940.152569 1985.110992,5937.447449 1980.374545,5955.772866"/>
    <poly id="1147380146" type="building" color="255,230,230" fill="1" layer="-1.00" shape="1961.612970,5942.336094 1967.025205,5943.649499 1968.830741,5936.165068 1963.418499,5934.851661 1961.612970,5942.336094"/>
    <poly id="1147380147" type="building" color="255,230,230" fill="1" layer="-1.00" shape="1958.367833,5954.012368 1963.842492,5955.439097 1965.004470,5950.971060 1959.529806,5949.544330 1958.367833,5954.012368"/>
    <poly id="1147380148" type="building" color="255,230,230" fill="1" layer="-1.00" shape="1953.789312,5965.544535 1960.759681,5967.321005 1962.180106,5961.704302 1955.216708,5959.939187 1953.789312,5965.544535"/>
    <poly id="1147380149" type="building" color="255,230,230" fill="1" layer="-1.00" shape="1504.010998,5475.998119 1517.395937,5481.067067 1519.964582,5474.286354 1506.579629,5469.217400 1504.010998,5475.998119"/>
    <poly id="1147380150" type="building" color="255,230,230" fill="1" layer="-1.00" shape="1502.517670,5473.111688 1504.324509,5468.030559 1494.299047,5464.551980 1492.527079,5469.467358 1502.517670,5473.111688"/>
    <poly id="1147380151" type="building" color="255,230,230" fill="1" layer="-1.00" shape="1420.834693,5518.905045 1417.526568,5517.093905 1410.759878,5529.455795 1414.067998,5531.266931 1420.834693,5518.905045"/>
    <poly id="1147380152" type="building" color="255,230,230" fill="1" layer="-1.00" shape="1555.922565,5975.516392 1561.582178,5953.894173 1448.985185,5924.443179 1443.325994,5946.065501 1555.922565,5975.516392"/>
    <poly id="1147380153" type="building" color="255,230,230" fill="1" layer="-1.00" shape="1554.357921,5981.506738 1568.040657,5985.083571 1576.711831,5951.933001 1563.029383,5948.345034 1561.582178,5953.894173 1555.922565,5975.516392 1554.357921,5981.506738"/>
    <poly id="1147380154" type="building" color="255,230,230" fill="1" layer="-1.00" shape="1378.812064,5863.420338 1386.461393,5863.337975 1386.401662,5857.550111 1389.645378,5857.512090 1389.476973,5840.938849 1386.417229,5840.971792 1386.358592,5835.150584 1378.532953,5835.227154 1378.812064,5863.420338"/>
    <poly id="1147380155" type="building" color="255,230,230" fill="1" layer="-1.00" shape="1321.174976,5854.939082 1321.760682,5852.777491 1319.355956,5852.119883 1323.479032,5836.956119 1334.563267,5839.968517 1329.854088,5857.304979 1321.174976,5854.939082"/>
    <poly id="1147380156" type="building" color="255,230,230" fill="1" layer="-1.00" shape="1328.936902,5711.136447 1337.920536,5714.758542 1340.551083,5708.769794 1330.553778,5704.669317 1328.936902,5711.136447"/>
    <poly id="1147380157" type="building" color="255,230,230" fill="1" layer="-1.00" shape="1341.118234,5662.423376 1339.001883,5670.888027 1330.553778,5704.669317 1328.936902,5711.136447 1328.488097,5712.935355 1318.322147,5710.387099 1330.959174,5659.886455 1341.118234,5662.423376"/>
    <poly id="1147380158" type="building" color="255,230,230" fill="1" layer="-1.00" shape="1518.258294,5121.267931 1520.691417,5118.388239 1523.023930,5120.356495 1520.590807,5123.236186 1518.258294,5121.267931"/>
    <poly id="1147380159" type="building" color="255,230,230" fill="1" layer="-1.00" shape="1537.075801,5129.096942 1539.186066,5128.431986 1541.383884,5128.682302 1543.288015,5129.813099 1544.567143,5131.613196 1544.995717,5133.785879 1544.427158,5136.092666 1542.910956,5137.923213 1540.746018,5138.909045 1538.373042,5138.842121 1536.261776,5137.749020 1534.784649,5135.708752 1534.418091,5133.215434 1535.239320,5130.827943 1537.075801,5129.096942"/>
    <poly id="1147380160" type="building" color="255,230,230" fill="1" layer="-1.00" shape="1476.876886,5195.168350 1525.534973,5236.513165 1577.153892,5175.767870 1571.502692,5170.964361 1575.166717,5166.656456 1562.426226,5155.833836 1558.853643,5160.044616 1528.765914,5134.476011 1534.043811,5128.273981 1525.623999,5121.120738 1520.567900,5127.063028 1516.454594,5123.567479 1464.713658,5184.453953 1470.443536,5189.326697 1467.200055,5193.147789 1473.824349,5198.773182 1476.876886,5195.168350"/>
    <poly id="1147380161" type="amenity" color="237,199,199" fill="1" layer="-1.00" shape="1575.082519,5369.483054 1582.015135,5360.587211 1588.116374,5365.338791 1581.183754,5374.234627 1575.082519,5369.483054"/>
    <poly id="1147380161#1" type="building" color="255,230,230" fill="1" layer="-1.00" shape="1575.082519,5369.483054 1582.015135,5360.587211 1588.116374,5365.338791 1581.183754,5374.234627 1575.082519,5369.483054"/>
    <poly id="1147380162" type="building" color="255,230,230" fill="1" layer="-1.00" shape="1619.059118,5419.398175 1622.775945,5415.270073 1618.655551,5411.551663 1614.931380,5415.679527 1619.059118,5419.398175"/>
    <poly id="1147380163" type="building" color="255,230,230" fill="1" layer="-1.00" shape="1527.426261,5351.158501 1533.297012,5344.364009 1537.779658,5348.250039 1531.916615,5355.033654 1527.426261,5351.158501"/>
    <poly id="1147380164" type="building" color="255,230,230" fill="1" layer="-1.00" shape="1694.703488,5203.325150 1695.540878,5200.448633 1697.922721,5201.139015 1697.077984,5204.015289 1694.703488,5203.325150"/>
    <poly id="1147380165" type="building" color="255,230,230" fill="1" layer="-1.00" shape="1784.991344,5236.963484 1792.300605,5242.545075 1796.173662,5237.476445 1788.864397,5231.894849 1784.991344,5236.963484"/>
    <poly id="1147380166" type="building" color="255,230,230" fill="1" layer="-1.00" shape="1773.414749,5271.642641 1783.706455,5279.770338 1802.774657,5255.630222 1792.490275,5247.502733 1773.414749,5271.642641"/>
    <poly id="1147380167" type="building" color="255,230,230" fill="1" layer="-1.00" shape="1796.571079,5283.231673 1819.028304,5301.084402 1841.352044,5272.990387 1818.894764,5255.137571 1796.571079,5283.231673"/>
    <poly id="1147380168" type="building" color="255,230,230" fill="1" layer="-1.00" shape="1681.513184,5156.136335 1685.772547,5159.659073 1689.601902,5155.022878 1685.342537,5151.500136 1681.513184,5156.136335"/>
    <poly id="1147380169" type="building" color="255,230,230" fill="1" layer="-1.00" shape="1561.081509,5118.025456 1575.615971,5129.530181 1584.178178,5118.718505 1569.651413,5107.202884 1561.081509,5118.025456"/>
    <poly id="1147380170" type="building" color="255,230,230" fill="1" layer="-1.00" shape="1578.292481,5095.559286 1586.699344,5102.211481 1593.504502,5093.622992 1599.596138,5098.452136 1605.964336,5090.405621 1591.473165,5078.924498 1578.292481,5095.559286"/>
    <poly id="1147380171" type="building" color="255,230,230" fill="1" layer="-1.00" shape="1431.639421,5067.637592 1442.002413,5055.950260 1448.054639,5061.312017 1437.698622,5073.010694 1431.639421,5067.637592"/>
    <poly id="1147380172" type="building" color="255,230,230" fill="1" layer="-1.00" shape="1447.913150,5052.194580 1451.768283,5055.269896 1455.434798,5050.661575 1451.579298,5047.597371 1447.913150,5052.194580"/>
    <poly id="1147380173" type="building" color="255,230,230" fill="1" layer="-1.00" shape="1309.543835,5079.859365 1312.585687,5076.354236 1335.844130,5096.523306 1332.802272,5100.028423 1309.543835,5079.859365"/>
    <poly id="1147380174" type="building" color="255,230,230" fill="1" layer="-1.00" shape="1364.039878,5054.155691 1367.570568,5050.321724 1372.066846,5054.475088 1368.536520,5058.297938 1364.039878,5054.155691"/>
    <poly id="1147380175" type="building" color="255,230,230" fill="1" layer="-1.00" shape="1319.157693,5068.358620 1344.865534,5090.521988 1368.954541,5062.584332 1343.247016,5040.409740 1319.157693,5068.358620"/>
    <poly id="1147380176" type="building" color="255,230,230" fill="1" layer="-1.00" shape="1345.329419,4939.425387 1373.756466,4961.655939 1376.627598,4957.978329 1384.614288,4964.226951 1406.492170,4936.239013 1370.085312,4907.771041 1345.329419,4939.425387"/>
    <poly id="1147380177" type="building" color="255,230,230" fill="1" layer="-1.00" shape="1553.130667,5628.837390 1559.111066,5630.324844 1559.738328,5627.797455 1553.765271,5626.310243 1553.130667,5628.837390"/>
    <poly id="1147380178" type="building" color="255,230,230" fill="1" layer="-1.00" shape="1550.768667,5663.085697 1556.021523,5664.560341 1555.672450,5665.783926 1561.988875,5667.560608 1564.804209,5657.527895 1558.101421,5655.649484 1557.734732,5656.961503 1552.875200,5655.599938 1550.768667,5663.085697"/>
    <poly id="1147380179" type="building" color="255,230,230" fill="1" layer="-1.00" shape="1561.555300,5681.632807 1567.414770,5682.771365 1568.015882,5679.697906 1562.156409,5678.559348 1561.555300,5681.632807"/>
    <poly id="1147380182" type="building" color="255,230,230" fill="1" layer="-1.00" shape="1947.931775,5403.025520 1966.942204,5417.894559 1976.660830,5405.474820 1989.584648,5415.603524 1979.958548,5427.892770 2017.755668,5457.490257 2027.566525,5444.951250 2040.124724,5454.789853 2030.690260,5466.840547 2049.104542,5481.267411 2068.326825,5456.710427 1967.614334,5377.882532 1947.931775,5403.025520"/>
    <poly id="1147380183" type="building" color="255,230,230" fill="1" layer="-1.00" shape="1896.442876,5522.888424 1926.556849,5448.730716 2052.694761,5499.934216 2049.621273,5507.510325 2071.882422,5516.545277 2056.731603,5553.876596 2064.132218,5556.891306 2052.255110,5586.152430 2030.088605,5577.154044 2036.122749,5562.298512 1999.350213,5547.366374 1993.283845,5562.309891 1948.086978,5543.962542 1954.088982,5529.183762 1924.441319,5517.146350 1918.479042,5531.837453 1896.442876,5522.888424"/>
    <poly id="1147380184" type="building" color="255,230,230" fill="1" layer="-1.00" shape="1890.947884,5551.514559 1866.737335,5610.556504 1902.946016,5625.413559 1899.900318,5632.823750 1944.604469,5651.154502 1941.526047,5658.663736 1978.917154,5673.994240 1975.895240,5681.349546 2020.156241,5699.499424 2053.587723,5617.974541 2031.090448,5608.753822 2024.854024,5623.947615 1988.057634,5608.858966 1994.158475,5593.983342 1950.230009,5575.978211 1944.096961,5590.941829 1906.400739,5575.479145 1912.589142,5560.394922 1890.947884,5551.514559"/>
    <poly id="1147475968" type="building" color="255,230,230" fill="1" layer="-1.00" shape="4821.385479,7362.512882 4813.581542,7362.429480 4813.725497,7349.793847 4819.883187,7349.866605 4819.866654,7351.457236 4821.512546,7351.478993 4821.385479,7362.512882"/>
    <poly id="1147475969" type="building" color="255,230,230" fill="1" layer="-1.00" shape="4835.540273,7351.637396 4835.591431,7347.477551 4826.839885,7347.373510 4826.788733,7351.533356 4835.540273,7351.637396"/>
    <poly id="1147475970" type="building" color="255,230,230" fill="1" layer="-1.00" shape="4761.089906,7379.720953 4761.701056,7374.422641 4764.696036,7374.767743 4768.679304,7375.234964 4768.068520,7380.522161 4763.520984,7380.002661 4761.089906,7379.720953"/>
    <poly id="1147475971" type="building" color="255,230,230" fill="1" layer="-1.00" shape="4782.803837,7412.004834 4789.564941,7412.275809 4789.960985,7402.207868 4783.199869,7401.936892 4782.803837,7412.004834"/>
    <poly id="1147475972" type="building" color="255,230,230" fill="1" layer="-1.00" shape="4763.765261,7437.237812 4763.767448,7431.685434 4757.893980,7431.689013 4757.889047,7440.835371 4763.762506,7440.831792 4763.765261,7437.237812"/>
    <poly id="1147475973" type="building" color="255,230,230" fill="1" layer="-1.00" shape="4780.997809,7465.265692 4786.200461,7465.317559 4786.290535,7457.142113 4781.087876,7457.090246 4780.997809,7465.265692"/>
    <poly id="1147475974" type="building" color="255,230,230" fill="1" layer="-1.00" shape="4718.886921,7424.763564 4722.984962,7424.655986 4725.538070,7424.585695 4725.721116,7431.412770 4719.069974,7431.590638 4718.886921,7424.763564"/>
    <poly id="1147475975" type="building" color="255,230,230" fill="1" layer="-1.00" shape="4710.884956,7417.863853 4718.705828,7417.658378 4718.886921,7424.763564 4719.069974,7431.590638 4715.487039,7431.682085 4715.300361,7424.743619 4713.181213,7424.806190 4713.145574,7423.236068 4711.026426,7423.298640 4710.884956,7417.863853"/>
    <poly id="1147475976" type="building" color="255,230,230" fill="1" layer="-1.00" shape="4669.108389,7428.449178 4669.263763,7433.250179 4663.185355,7433.447286 4662.876258,7424.234790 4668.955049,7424.026568 4669.108389,7428.449178"/>
    <poly id="1147475977" type="building" color="255,230,230" fill="1" layer="-1.00" shape="4725.655256,7369.276544 4731.303124,7368.987194 4730.985845,7362.656347 4725.330627,7362.945452 4725.655256,7369.276544"/>
    <poly id="1147475978" type="building" color="255,230,230" fill="1" layer="-1.00" shape="4695.762330,7389.595299 4691.842251,7389.875764 4691.025777,7378.253941 4694.945865,7377.973476 4695.762330,7389.595299"/>
    <poly id="1147475979" type="building" color="255,230,230" fill="1" layer="-1.00" shape="4679.348411,7386.720226 4679.414274,7388.046561 4688.764795,7387.602943 4688.401133,7379.801764 4682.371459,7380.078375 4682.676238,7386.564578 4679.348411,7386.720226"/>
    <poly id="1147475980" type="building" color="255,230,230" fill="1" layer="-1.00" shape="4676.037162,7360.249169 4675.965958,7356.886388 4683.969734,7356.709236 4684.047904,7360.083378 4676.037162,7360.249169"/>