<?xml version="1.0" encoding="UTF-8"?>

<!-- generated on 12/17/25 17:49:59 by Eclipse SUMO netconvert Version 1.5.0
<configuration xmlns:xsi="http://www.w3.org/2001/XMLSchema-instance" xsi:noNamespaceSchemaLocation="http://sumo.dlr.de/xsd/netconvertConfiguration.xsd">

    <input>
        <osm-files value="grossmehring_raw.osm"/>
    </input>

    <output>
        <output-file value="grossmehring.net.xml"/>
    </output>

    <projection>
        <proj.utm value="true"/>
    </projection>

    <tls_building>
        <tls.discard-simple value="true"/>
    </tls_building>

    <edge_removal>
        <keep-edges.by-vclass value="passenger"/>
        <remove-edges.isolated value="true"/>
    </edge_removal>

    <junctions>
        <no-turnarounds.tls value="true"/>
        <junctions.join value="true"/>
    </junctions>

    <report>
        <aggregate-warnings value="5"/>
    </report>

</configuration>
-->

<net version="1.3" junctionCornerDetail="5" limitTurnSpeed="5.50" xmlns:xsi="http://www.w3.org/2001/XMLSchema-instance" xsi:noNamespaceSchemaLocation="http://sumo.dlr.de/xsd/net_file.xsd">

    <location netOffset="-682394.69,-5400848.40" convBoundary="0.00,0.00,9247.71,10832.57" origBoundary="11.483060,48.732868,11.610051,48.829831" projParameter="+proj=utm +zone=32 +ellps=WGS84 +datum=WGS84 +units=m +no_defs"/>

    <type id="highway.bridleway" priority="1" numLanes="1" speed="2.78" allow="pedestrian" oneway="1" width="2.00"/>
    <type id="highway.bus_guideway" priority="1" numLanes="1" speed="27.78" allow="bus" oneway="1"/>
    <type id="highway.cycleway" priority="1" numLanes="1" speed="8.33" allow="bicycle" oneway="0" width="1.00"/>
    <type id="highway.footway" priority="1" numLanes="1" speed="2.78" allow="pedestrian" oneway="1" width="2.00"/>
    <type id="highway.ford" priority="1" numLanes="1" speed="2.78" allow="army" oneway="0"/>
    <type id="highway.living_street" priority="2" numLanes="1" speed="2.78" disallow="tram rail_urban rail rail_electric rail_fast ship" oneway="0"/>
    <type id="highway.motorway" priority="14" numLanes="2" speed="39.44" allow="private emergency authority army vip passenger hov taxi bus coach delivery truck trailer motorcycle evehicle custom1 custom2" oneway="1"/>
    <type id="highway.motorway_link" priority="9" numLanes="1" speed="22.22" allow="private emergency authority army vip passenger hov taxi bus coach delivery truck trailer motorcycle evehicle custom1 custom2" oneway="1"/>
    <type id="highway.path" priority="1" numLanes="1" speed="2.78" allow="pedestrian bicycle" oneway="1" width="2.00"/>
    <type id="highway.pedestrian" priority="1" numLanes="1" speed="2.78" allow="pedestrian" oneway="1" width="2.00"/>
    <type id="highway.primary" priority="12" numLanes="2" speed="27.78" disallow="tram rail_urban rail rail_electric rail_fast ship" oneway="0"/>
    <type id="highway.primary_link" priority="7" numLanes="1" speed="22.22" disallow="tram rail_urban rail rail_electric rail_fast ship" oneway="0"/>
    <type id="highway.raceway" priority="15" numLanes="2" speed="83.33" allow="vip" oneway="0"/>
    <type id="highway.residential" priority="3" numLanes="1" speed="13.89" disallow="tram rail_urban rail rail_electric rail_fast ship" oneway="0"/>
    <type id="highway.secondary" priority="11" numLanes="1" speed="27.78" disallow="tram rail_urban rail rail_electric rail_fast ship" oneway="0"/>
    <type id="highway.secondary_link" priority="6" numLanes="1" speed="22.22" disallow="tram rail_urban rail rail_electric rail_fast ship" oneway="0"/>
    <type id="highway.service" priority="1" numLanes="1" speed="5.56" allow="pedestrian delivery bicycle" oneway="0"/>
    <type id="highway.stairs" priority="1" numLanes="1" speed="1.39" allow="pedestrian" oneway="1" width="2.00"/>
    <type id="highway.step" priority="1" numLanes="1" speed="1.39" allow="pedestrian" oneway="1" width="2.00"/>
    <type id="highway.steps" priority="1" numLanes="1" speed="1.39" allow="pedestrian" oneway="1" width="2.00"/>
    <type id="highway.tertiary" priority="10" numLanes="1" speed="22.22" disallow="tram rail_urban rail rail_electric rail_fast ship" oneway="0"/>
    <type id="highway.tertiary_link" priority="5" numLanes="1" speed="22.22" disallow="tram rail_urban rail rail_electric rail_fast ship" oneway="0"/>
    <type id="highway.track" priority="1" numLanes="1" speed="5.56" disallow="tram rail_urban rail rail_electric rail_fast ship" oneway="0"/>
    <type id="highway.trunk" priority="13" numLanes="2" speed="27.78" disallow="pedestrian bicycle tram rail_urban rail rail_electric rail_fast ship" oneway="0"/>
    <type id="highway.trunk_link" priority="8" numLanes="1" speed="22.22" disallow="pedestrian bicycle tram rail_urban rail rail_electric rail_fast ship" oneway="0"/>
    <type id="highway.unclassified" priority="4" numLanes="1" speed="13.89" disallow="tram rail_urban rail rail_electric rail_fast ship" oneway="0"/>
    <type id="highway.unsurfaced" priority="1" numLanes="1" speed="8.33" disallow="tram rail_urban rail rail_electric rail_fast ship" oneway="0"/>
    <type id="railway.highspeed" priority="21" numLanes="1" speed="69.44" allow="rail_fast" oneway="1"/>
    <type id="railway.light_rail" priority="19" numLanes="1" speed="27.78" allow="rail_urban" oneway="1"/>
    <type id="railway.preserved" priority="16" numLanes="1" speed="27.78" allow="rail" oneway="1"/>
    <type id="railway.rail" priority="20" numLanes="1" speed="44.44" allow="rail" oneway="1"/>
    <type id="railway.subway" priority="18" numLanes="1" speed="27.78" allow="rail_urban" oneway="1"/>
    <type id="railway.tram" priority="17" numLanes="1" speed="13.89" allow="tram" oneway="1"/>

    <edge id=":1014796142_0" function="internal">
        <lane id=":1014796142_0_0" index="0" disallow="tram rail_urban rail rail_electric rail_fast ship" speed="13.89" length="14.14" shape="1518.54,5582.90 1516.40,5585.81 1514.44,5588.66 1512.55,5591.56 1510.64,5594.63"/>
    </edge>
    <edge id=":1014796142_1" function="internal">
        <lane id=":1014796142_1_0" index="0" disallow="tram rail_urban rail rail_electric rail_fast ship" speed="9.21" length="5.39" shape="1518.54,5582.90 1516.02,5585.32 1514.28,5586.08"/>
    </edge>
    <edge id=":1014796142_2" function="internal">
        <lane id=":1014796142_2_0" index="0" disallow="tram rail_urban rail rail_electric rail_fast ship" speed="3.65" length="2.34" shape="1518.54,5582.90 1517.17,5583.37 1516.29,5583.21"/>
    </edge>
    <edge id=":1014796142_9" function="internal">
        <lane id=":1014796142_9_0" index="0" disallow="tram rail_urban rail rail_electric rail_fast ship" speed="9.21" length="9.13" shape="1514.28,5586.08 1512.99,5586.63 1509.44,5586.82 1505.37,5585.89"/>
    </edge>
    <edge id=":1014796142_10" function="internal">
        <lane id=":1014796142_10_0" index="0" disallow="tram rail_urban rail rail_electric rail_fast ship" speed="3.65" length="2.34" shape="1516.29,5583.21 1515.90,5582.41 1515.98,5580.97"/>
    </edge>
    <edge id=":1014796142_3" function="internal">
        <lane id=":1014796142_3_0" index="0" disallow="tram rail_urban rail rail_electric rail_fast ship" speed="7.91" length="10.48" shape="1506.41,5582.87 1509.43,5583.58 1512.03,5583.50 1514.22,5582.63 1515.98,5580.97"/>
    </edge>
    <edge id=":1014796142_4" function="internal">
        <lane id=":1014796142_4_0" index="0" disallow="tram rail_urban rail rail_electric rail_fast ship" speed="7.66" length="15.10" shape="1506.41,5582.87 1510.22,5584.82 1512.19,5587.43 1512.33,5590.70 1510.64,5594.63"/>
    </edge>
    <edge id=":1014796142_5" function="internal">
        <lane id=":1014796142_5_0" index="0" disallow="tram rail_urban rail rail_electric rail_fast ship" speed="3.65" length="4.67" shape="1506.41,5582.87 1507.28,5584.01 1507.40,5584.90 1506.77,5585.53 1505.37,5585.89"/>
    </edge>
    <edge id=":1014796142_6" function="internal">
        <lane id=":1014796142_6_0" index="0" disallow="tram rail_urban rail rail_electric rail_fast ship" speed="6.08" length="9.06" shape="1507.91,5592.95 1508.93,5590.59 1508.84,5588.63 1507.66,5587.07 1505.37,5585.89"/>
    </edge>
    <edge id=":1014796142_7" function="internal">
        <lane id=":1014796142_7_0" index="0" disallow="tram rail_urban rail rail_electric rail_fast ship" speed="13.89" length="14.46" shape="1507.91,5592.95 1509.85,5589.84 1511.79,5586.86 1513.82,5583.93 1515.98,5580.97"/>
    </edge>
    <edge id=":1014796142_8" function="internal">
        <lane id=":1014796142_8_0" index="0" disallow="tram rail_urban rail rail_electric rail_fast ship" speed="3.65" length="2.34" shape="1507.91,5592.95 1509.22,5592.35 1510.11,5592.42"/>
    </edge>
    <edge id=":1014796142_11" function="internal">
        <lane id=":1014796142_11_0" index="0" disallow="tram rail_urban rail rail_electric rail_fast ship" speed="3.65" length="2.34" shape="1510.11,5592.42 1510.58,5593.18 1510.64,5594.63"/>
    </edge>
    <edge id=":1014796144_0" function="internal">
        <lane id=":1014796144_0_0" index="0" disallow="tram rail_urban rail rail_electric rail_fast ship" speed="13.89" length="0.27" shape="1468.60,5573.28 1468.34,5573.19"/>
    </edge>
    <edge id=":1014796144_1" function="internal">
        <lane id=":1014796144_1_0" index="0" disallow="tram rail_urban rail rail_electric rail_fast ship" speed="13.89" length="0.31" shape="1469.34,5570.15 1469.64,5570.25"/>
    </edge>
    <edge id=":1014796145_0" function="internal">
        <lane id=":1014796145_0_0" index="0" disallow="tram rail_urban rail rail_electric rail_fast ship" speed="3.65" length="4.67" shape="1315.13,5670.16 1315.19,5671.61 1314.78,5672.40 1313.90,5672.55 1312.55,5672.05"/>
    </edge>
    <edge id=":1016211769_0" function="internal">
        <lane id=":1016211769_0_0" index="0" disallow="tram rail_urban rail rail_electric rail_fast ship" speed="13.89" length="0.26" shape="4530.08,7214.48 4530.01,7214.46 4529.95,7214.45 4529.90,7214.44 4529.82,7214.44"/>
    </edge>
    <edge id=":1016211769_1" function="internal">
        <lane id=":1016211769_1_0" index="0" disallow="tram rail_urban rail rail_electric rail_fast ship" speed="13.89" length="0.79" shape="4530.11,7211.25 4530.34,7211.27 4530.50,7211.29 4530.66,7211.32 4530.89,7211.38"/>
    </edge>
    <edge id=":1016211791_0" function="internal">
        <lane id=":1016211791_0_0" index="0" disallow="tram rail_urban rail rail_electric rail_fast ship" speed="8.33" length="0.31" shape="5221.79,9001.48 5221.69,9001.78"/>
    </edge>
    <edge id=":1016211791_1" function="internal">
        <lane id=":1016211791_1_0" index="0" disallow="tram rail_urban rail rail_electric rail_fast ship" speed="8.33" length="0.26" shape="5218.66,9000.74 5218.75,9000.49"/>
    </edge>
    <edge id=":1016211999_0" function="internal">
        <lane id=":1016211999_0_0" index="0" disallow="tram rail_urban rail rail_electric rail_fast ship" speed="13.89" length="0.31" shape="4282.90,7304.03 4282.60,7304.09"/>
    </edge>
    <edge id=":1016211999_1" function="internal">
        <lane id=":1016211999_1_0" index="0" disallow="tram rail_urban rail rail_electric rail_fast ship" speed="13.89" length="0.29" shape="4281.96,7300.95 4282.25,7300.89"/>
    </edge>
    <edge id=":1018017894_0" function="internal">
        <lane id=":1018017894_0_0" index="0" disallow="tram rail_urban rail rail_electric rail_fast ship" speed="13.89" length="0.15" shape="3343.79,3690.43 3343.75,3690.42 3343.72,3690.42 3343.69,3690.43 3343.65,3690.43"/>
    </edge>
    <edge id=":1018017894_1" function="internal">
        <lane id=":1018017894_1_0" index="0" disallow="tram rail_urban rail rail_electric rail_fast ship" speed="13.89" length="0.44" shape="3343.43,3687.24 3343.56,3687.23 3343.65,3687.22 3343.74,3687.22 3343.87,3687.23"/>
    </edge>
    <edge id=":1018017914_0" function="internal">
        <lane id=":1018017914_0_0" index="0" disallow="tram rail_urban rail rail_electric rail_fast ship" speed="3.65" length="4.67" shape="3313.35,3606.09 3312.78,3607.42 3312.07,3607.95 3311.21,3607.71 3310.20,3606.67"/>
    </edge>
    <edge id=":1018064720_0" function="internal">
        <lane id=":1018064720_0_0" index="0" disallow="tram rail_urban rail rail_electric rail_fast ship" speed="13.89" length="1.23" shape="2109.14,3451.98 2108.82,3451.79 2108.62,3451.64 2108.43,3451.48 2108.17,3451.22"/>
    </edge>
    <edge id=":1018064720_1" function="internal">
        <lane id=":1018064720_1_0" index="0" disallow="tram rail_urban rail rail_electric rail_fast ship" speed="13.89" length="0.41" shape="2110.45,3448.97 2110.53,3449.06 2110.59,3449.11 2110.66,3449.16 2110.77,3449.22"/>
    </edge>
    <edge id=":1018064728_0" function="internal">
        <lane id=":1018064728_0_0" index="0" disallow="tram rail_urban rail rail_electric rail_fast ship" speed="13.89" length="0.53" shape="2129.48,3461.61 2129.33,3461.57 2129.23,3461.54 2129.13,3461.50 2128.98,3461.45"/>
    </edge>
    <edge id=":1018064728_1" function="internal">
        <lane id=":1018064728_1_0" index="0" disallow="tram rail_urban rail rail_electric rail_fast ship" speed="13.89" length="0.18" shape="2130.15,3458.47 2130.20,3458.49 2130.23,3458.50 2130.27,3458.51 2130.32,3458.52"/>
    </edge>
    <edge id=":10651787811_0" function="internal">
        <lane id=":10651787811_0_0" index="0" disallow="tram rail_urban rail rail_electric rail_fast ship" speed="13.89" length="13.07" shape="2650.81,4047.54 2649.08,4044.55 2647.24,4042.08 2645.06,4039.89 2642.34,4037.77"/>
    </edge>
    <edge id=":10651787811_1" function="internal">
        <lane id=":10651787811_1_0" index="0" disallow="tram rail_urban rail rail_electric rail_fast ship" speed="8.31" length="5.49" shape="2650.81,4047.54 2649.42,4043.82 2649.39,4042.30"/>
    </edge>
    <edge id=":10651787811_2" function="internal">
        <lane id=":10651787811_2_0" index="0" disallow="tram rail_urban rail rail_electric rail_fast ship" speed="3.65" length="2.34" shape="2650.81,4047.54 2650.87,4046.10 2651.35,4045.34"/>
    </edge>
    <edge id=":10651787811_9" function="internal">
        <lane id=":10651787811_9_0" index="0" disallow="tram rail_urban rail rail_electric rail_fast ship" speed="8.31" length="8.50" shape="2649.39,4042.30 2649.35,4040.52 2650.62,4037.65 2653.23,4035.19"/>
    </edge>
    <edge id=":10651787811_10" function="internal">
        <lane id=":10651787811_10_0" index="0" disallow="tram rail_urban rail rail_electric rail_fast ship" speed="3.65" length="2.34" shape="2651.35,4045.34 2652.25,4045.27 2653.55,4045.89"/>
    </edge>
    <edge id=":10651787811_3" function="internal">
        <lane id=":10651787811_3_0" index="0" disallow="tram rail_urban rail rail_electric rail_fast ship" speed="6.79" length="10.25" shape="2655.85,4037.28 2653.66,4038.78 2652.55,4040.71 2652.51,4043.08 2653.55,4045.89"/>
    </edge>
    <edge id=":10651787811_4" function="internal">
        <lane id=":10651787811_4_0" index="0" disallow="tram rail_urban rail rail_electric rail_fast ship" speed="10.12" length="14.14" shape="2655.85,4037.28 2651.80,4038.81 2648.20,4039.40 2645.05,4039.06 2642.34,4037.77"/>
    </edge>
    <edge id=":10651787811_5" function="internal">
        <lane id=":10651787811_5_0" index="0" disallow="tram rail_urban rail rail_electric rail_fast ship" speed="3.78" length="4.89" shape="2655.85,4037.28 2654.41,4037.74 2653.49,4037.55 2653.10,4036.70 2653.23,4035.19"/>
    </edge>
    <edge id=":10651787811_6" function="internal">
        <lane id=":10651787811_6_0" index="0" disallow="tram rail_urban rail rail_electric rail_fast ship" speed="7.61" length="9.28" shape="2644.56,4035.42 2646.64,4036.49 2648.78,4036.81 2650.97,4036.38 2653.23,4035.19"/>
    </edge>
    <edge id=":10651787811_7" function="internal">
        <lane id=":10651787811_7_0" index="0" disallow="tram rail_urban rail rail_electric rail_fast ship" speed="13.89" length="13.94" shape="2644.56,4035.42 2647.36,4037.65 2649.72,4040.07 2651.74,4042.79 2653.55,4045.89"/>
    </edge>
    <edge id=":10651787811_8" function="internal">
        <lane id=":10651787811_8_0" index="0" disallow="tram rail_urban rail rail_electric rail_fast ship" speed="3.66" length="2.21" shape="2644.56,4035.42 2644.89,4036.84 2644.67,4037.56"/>
    </edge>
    <edge id=":10651787811_11" function="internal">
        <lane id=":10651787811_11_0" index="0" disallow="tram rail_urban rail rail_electric rail_fast ship" speed="3.66" length="2.51" shape="2644.67,4037.56 2644.63,4037.70 2643.78,4038.01 2642.34,4037.77"/>
    </edge>
    <edge id=":10651787819_0" function="internal">
        <lane id=":10651787819_0_0" index="0" disallow="tram rail_urban rail rail_electric rail_fast ship" speed="13.89" length="0.44" shape="2683.14,4099.21 2683.02,4099.26 2682.94,4099.29 2682.86,4099.32 2682.73,4099.36"/>
    </edge>
    <edge id=":10651787819_1" function="internal">
        <lane id=":10651787819_1_0" index="0" disallow="tram rail_urban rail rail_electric rail_fast ship" speed="13.89" length="0.15" shape="2681.75,4096.32 2681.79,4096.30 2681.82,4096.29 2681.85,4096.28 2681.89,4096.26"/>
    </edge>
    <edge id=":10651787825_0" function="internal">
        <lane id=":10651787825_0_0" index="0" disallow="tram rail_urban rail rail_electric rail_fast ship" speed="13.89" length="0.25" shape="2585.16,3961.54 2585.06,3961.32"/>
    </edge>
    <edge id=":10651787825_1" function="internal">
        <lane id=":10651787825_1_0" index="0" disallow="tram rail_urban rail rail_electric rail_fast ship" speed="13.89" length="0.31" shape="2587.93,3959.90 2588.06,3960.18"/>
    </edge>
    <edge id=":10651787827_0" function="internal">
        <lane id=":10651787827_0_0" index="0" disallow="tram rail_urban rail rail_electric rail_fast ship" speed="7.05" length="9.81" shape="2578.22,3947.46 2576.68,3945.10 2574.84,3943.67 2572.71,3943.18 2570.28,3943.62"/>
    </edge>
    <edge id=":10651787827_1" function="internal">
        <lane id=":10651787827_1_0" index="0" disallow="tram rail_urban rail rail_electric rail_fast ship" speed="7.81" length="14.73" shape="2578.22,3947.46 2576.93,3943.52 2577.28,3940.27 2579.26,3937.70 2582.88,3935.81"/>
    </edge>
    <edge id=":10651787827_2" function="internal">
        <lane id=":10651787827_2_0" index="0" disallow="tram rail_urban rail rail_electric rail_fast ship" speed="3.65" length="4.67" shape="2578.22,3947.46 2578.38,3946.02 2578.90,3945.30 2579.80,3945.28 2581.06,3945.98"/>
    </edge>
    <edge id=":10651787827_3" function="internal">
        <lane id=":10651787827_3_0" index="0" disallow="tram rail_urban rail rail_electric rail_fast ship" speed="6.26" length="9.05" shape="2583.93,3938.83 2581.71,3939.99 2580.49,3941.57 2580.27,3943.57 2581.06,3945.98"/>
    </edge>
    <edge id=":10651787827_4" function="internal">
        <lane id=":10651787827_4_0" index="0" disallow="tram rail_urban rail rail_electric rail_fast ship" speed="22.22" length="14.47" shape="2583.93,3938.83 2570.28,3943.62"/>
    </edge>
    <edge id=":10651787827_5" function="internal">
        <lane id=":10651787827_5_0" index="0" disallow="tram rail_urban rail rail_electric rail_fast ship" speed="3.65" length="2.34" shape="2583.93,3938.83 2582.54,3938.47 2581.90,3937.85"/>
    </edge>
    <edge id=":10651787827_9" function="internal">
        <lane id=":10651787827_9_0" index="0" disallow="tram rail_urban rail rail_electric rail_fast ship" speed="3.65" length="2.34" shape="2581.90,3937.85 2582.01,3936.96 2582.88,3935.81"/>
    </edge>
    <edge id=":10651787827_6" function="internal">
        <lane id=":10651787827_6_0" index="0" disallow="tram rail_urban rail rail_electric rail_fast ship" speed="22.22" length="14.47" shape="2569.22,3940.60 2582.88,3935.81"/>
    </edge>
    <edge id=":10651787827_7" function="internal">
        <lane id=":10651787827_7_0" index="0" disallow="tram rail_urban rail rail_electric rail_fast ship" speed="8.45" length="5.76" shape="2569.22,3940.60 2572.90,3939.90 2574.87,3940.31"/>
    </edge>
    <edge id=":10651787827_8" function="internal">
        <lane id=":10651787827_8_0" index="0" disallow="tram rail_urban rail rail_electric rail_fast ship" speed="3.65" length="2.34" shape="2569.22,3940.60 2570.61,3940.95 2571.26,3941.58"/>
    </edge>
    <edge id=":10651787827_10" function="internal">
        <lane id=":10651787827_10_0" index="0" disallow="tram rail_urban rail rail_electric rail_fast ship" speed="8.45" length="8.70" shape="2574.87,3940.31 2576.10,3940.57 2578.82,3942.59 2581.06,3945.98"/>
    </edge>
    <edge id=":10651787827_11" function="internal">
        <lane id=":10651787827_11_0" index="0" disallow="tram rail_urban rail rail_electric rail_fast ship" speed="3.65" length="2.34" shape="2571.26,3941.58 2571.14,3942.46 2570.28,3943.62"/>
    </edge>
    <edge id=":10651787828_0" function="internal">
        <lane id=":10651787828_0_0" index="0" disallow="tram rail_urban rail rail_electric rail_fast ship" speed="9.75" length="10.14" shape="2271.98,3832.71 2271.05,3835.41 2270.68,3837.95 2270.88,3840.32 2271.65,3842.53"/>
    </edge>
    <edge id=":10651787828_1" function="internal">
        <lane id=":10651787828_1_0" index="0" disallow="tram rail_urban rail rail_electric rail_fast ship" speed="8.29" length="4.17" shape="2271.98,3832.71 2270.53,3834.84 2269.20,3835.71"/>
    </edge>
    <edge id=":10651787828_2" function="internal">
        <lane id=":10651787828_2_0" index="0" disallow="tram rail_urban rail rail_electric rail_fast ship" speed="3.65" length="2.34" shape="2271.98,3832.71 2270.77,3833.49 2269.88,3833.53"/>
    </edge>
    <edge id=":10651787828_9" function="internal">
        <lane id=":10651787828_9_0" index="0" disallow="tram rail_urban rail rail_electric rail_fast ship" speed="8.29" length="7.51" shape="2269.20,3835.71 2268.37,3836.25 2265.50,3836.93 2261.93,3836.88"/>
    </edge>
    <edge id=":10651787828_10" function="internal">
        <lane id=":10651787828_10_0" index="0" disallow="tram rail_urban rail rail_electric rail_fast ship" speed="3.65" length="2.34" shape="2269.88,3833.53 2269.30,3832.85 2269.05,3831.43"/>
    </edge>
    <edge id=":10651787828_3" function="internal">
        <lane id=":10651787828_3_0" index="0" disallow="tram rail_urban rail rail_electric rail_fast ship" speed="6.82" length="7.64" shape="2262.26,3833.70 2264.76,3833.77 2266.73,3833.42 2268.16,3832.64 2269.05,3831.43"/>
    </edge>
    <edge id=":10651787828_4" function="internal">
        <lane id=":10651787828_4_0" index="0" disallow="tram rail_urban rail rail_electric rail_fast ship" speed="10.18" length="13.41" shape="2262.26,3833.70 2264.82,3834.45 2267.24,3836.18 2269.52,3838.87 2271.65,3842.53"/>
    </edge>
    <edge id=":10651787828_5" function="internal">
        <lane id=":10651787828_5_0" index="0" disallow="tram rail_urban rail rail_electric rail_fast ship" speed="3.65" length="4.67" shape="2262.26,3833.70 2263.37,3834.62 2263.68,3835.45 2263.20,3836.21 2261.93,3836.88"/>
    </edge>
    <edge id=":10651787828_6" function="internal">
        <lane id=":10651787828_6_0" index="0" disallow="tram rail_urban rail rail_electric rail_fast ship" speed="7.77" length="8.93" shape="2268.23,3842.46 2267.19,3840.20 2265.79,3838.51 2264.04,3837.41 2261.93,3836.88"/>
    </edge>
    <edge id=":10651787828_7" function="internal">
        <lane id=":10651787828_7_0" index="0" disallow="tram rail_urban rail rail_electric rail_fast ship" speed="11.66" length="11.45" shape="2268.23,3842.46 2267.40,3839.38 2267.29,3836.88 2267.85,3834.41 2269.05,3831.43"/>
    </edge>
    <edge id=":10651787828_8" function="internal">
        <lane id=":10651787828_8_0" index="0" disallow="tram rail_urban rail rail_electric rail_fast ship" speed="3.80" length="1.90" shape="2268.23,3842.46 2269.11,3841.20 2269.44,3841.04"/>
    </edge>
    <edge id=":10651787828_11" function="internal">
        <lane id=":10651787828_11_0" index="0" disallow="tram rail_urban rail rail_electric rail_fast ship" speed="3.80" length="3.10" shape="2269.44,3841.04 2269.98,3840.79 2270.82,3841.23 2271.65,3842.53"/>
    </edge>
    <edge id=":10651787832_0" function="internal">
        <lane id=":10651787832_0_0" index="0" disallow="tram rail_urban rail rail_electric rail_fast ship" speed="3.65" length="4.67" shape="2257.10,3836.37 2255.99,3835.45 2255.67,3834.62 2256.16,3833.86 2257.43,3833.19"/>
    </edge>
    <edge id=":10677215092_0" function="internal">
        <lane id=":10677215092_0_0" index="0" disallow="tram rail_urban rail rail_electric rail_fast ship" speed="3.65" length="4.67" shape="4062.37,7374.51 4063.79,7374.71 4064.50,7375.26 4064.48,7376.15 4063.75,7377.39"/>
    </edge>
    <edge id=":10677215823_0" function="internal">
        <lane id=":10677215823_0_0" index="0" disallow="tram rail_urban rail rail_electric rail_fast ship" speed="6.71" length="9.28" shape="4572.27,7501.39 4571.78,7498.98 4570.61,7497.26 4568.73,7496.22 4566.17,7495.87"/>
    </edge>
    <edge id=":10677215823_1" function="internal">
        <lane id=":10677215823_1_0" index="0" disallow="tram rail_urban rail rail_electric rail_fast ship" speed="13.89" length="14.40" shape="4572.27,7501.39 4571.60,7487.01"/>
    </edge>
    <edge id=":10677215823_2" function="internal">
        <lane id=":10677215823_2_0" index="0" disallow="tram rail_urban rail rail_electric rail_fast ship" speed="3.65" length="2.34" shape="4572.27,7501.39 4573.01,7500.16 4573.79,7499.72"/>
    </edge>
    <edge id=":10677215823_9" function="internal">
        <lane id=":10677215823_9_0" index="0" disallow="tram rail_urban rail rail_electric rail_fast ship" speed="3.65" length="2.34" shape="4573.79,7499.72 4574.61,7500.08 4575.46,7501.24"/>
    </edge>
    <edge id=":10677215823_3" function="internal">
        <lane id=":10677215823_3_0" index="0" disallow="tram rail_urban rail rail_electric rail_fast ship" speed="13.89" length="14.38" shape="4574.80,7486.87 4575.46,7501.24"/>
    </edge>
    <edge id=":10677215823_4" function="internal">
        <lane id=":10677215823_4_0" index="0" disallow="tram rail_urban rail rail_electric rail_fast ship" speed="7.92" length="5.91" shape="4574.80,7486.87 4574.41,7490.81 4573.46,7492.52"/>
    </edge>
    <edge id=":10677215823_5" function="internal">
        <lane id=":10677215823_5_0" index="0" disallow="tram rail_urban rail rail_electric rail_fast ship" speed="3.65" length="2.34" shape="4574.80,7486.87 4574.05,7488.10 4573.27,7488.54"/>
    </edge>
    <edge id=":10677215823_10" function="internal">
        <lane id=":10677215823_10_0" index="0" disallow="tram rail_urban rail rail_electric rail_fast ship" speed="7.92" length="8.46" shape="4573.46,7492.52 4572.84,7493.63 4570.09,7495.31 4566.17,7495.87"/>
    </edge>
    <edge id=":10677215823_11" function="internal">
        <lane id=":10677215823_11_0" index="0" disallow="tram rail_urban rail rail_electric rail_fast ship" speed="3.65" length="2.34" shape="4573.27,7488.54 4572.45,7488.17 4571.60,7487.01"/>
    </edge>
    <edge id=":10677215823_6" function="internal">
        <lane id=":10677215823_6_0" index="0" disallow="tram rail_urban rail rail_electric rail_fast ship" speed="6.41" length="9.04" shape="4566.17,7492.67 4568.64,7492.32 4570.37,7491.26 4571.35,7489.49 4571.60,7487.01"/>
    </edge>
    <edge id=":10677215823_7" function="internal">
        <lane id=":10677215823_7_0" index="0" disallow="tram rail_urban rail rail_electric rail_fast ship" speed="8.17" length="14.25" shape="4566.17,7492.67 4570.08,7493.21 4572.93,7494.82 4574.73,7497.50 4575.46,7501.24"/>
    </edge>
    <edge id=":10677215823_8" function="internal">
        <lane id=":10677215823_8_0" index="0" disallow="tram rail_urban rail rail_electric rail_fast ship" speed="3.65" length="4.67" shape="4566.17,7492.67 4567.37,7493.47 4567.77,7494.27 4567.37,7495.07 4566.17,7495.87"/>
    </edge>
    <edge id=":10677215840_0" function="internal">
        <lane id=":10677215840_0_0" index="0" disallow="tram rail_urban rail rail_electric rail_fast ship" speed="8.33" length="14.38" shape="4352.64,7457.22 4349.45,7443.20"/>
    </edge>
    <edge id=":10677215840_1" function="internal">
        <lane id=":10677215840_1_0" index="0" disallow="tram rail_urban rail rail_electric rail_fast ship" speed="7.95" length="14.30" shape="4352.64,7457.22 4352.33,7453.30 4353.36,7450.25 4355.74,7448.08 4359.45,7446.78"/>
    </edge>
    <edge id=":10677215840_2" function="internal">
        <lane id=":10677215840_2_0" index="0" disallow="tram rail_urban rail rail_electric rail_fast ship" speed="3.65" length="4.67" shape="4352.64,7457.22 4353.16,7455.87 4353.85,7455.31 4354.72,7455.52 4355.77,7456.52"/>
    </edge>
    <edge id=":10677215840_3" function="internal">
        <lane id=":10677215840_3_0" index="0" disallow="tram rail_urban rail rail_electric rail_fast ship" speed="6.45" length="9.03" shape="4360.07,7449.92 4357.72,7450.74 4356.22,7452.11 4355.57,7454.04 4355.77,7456.52"/>
    </edge>
    <edge id=":10677215840_4" function="internal">
        <lane id=":10677215840_4_0" index="0" disallow="tram rail_urban rail rail_electric rail_fast ship" speed="8.11" length="14.23" shape="4360.07,7449.92 4356.15,7450.14 4353.08,7449.09 4350.84,7446.78 4349.45,7443.20"/>
    </edge>
    <edge id=":10677215840_5" function="internal">
        <lane id=":10677215840_5_0" index="0" disallow="tram rail_urban rail rail_electric rail_fast ship" speed="3.65" length="4.67" shape="4360.07,7449.92 4358.74,7449.37 4358.19,7448.66 4358.43,7447.80 4359.45,7446.78"/>
    </edge>
    <edge id=":10677215840_6" function="internal">
        <lane id=":10677215840_6_0" index="0" disallow="tram rail_urban rail rail_electric rail_fast ship" speed="6.63" length="9.19" shape="4352.57,7442.48 4353.47,7444.78 4354.91,7446.26 4356.91,7446.93 4359.45,7446.78"/>
    </edge>
    <edge id=":10677215840_7" function="internal">
        <lane id=":10677215840_7_0" index="0" disallow="tram rail_urban rail rail_electric rail_fast ship" speed="8.33" length="14.40" shape="4352.57,7442.48 4355.77,7456.52"/>