<?xml version="1.0" encoding="UTF-8"?>

<!-- generated on 12/17/25 17:50:57 by Eclipse SUMO duarouter Version 1.5.0
<configuration xmlns:xsi="http://www.w3.org/2001/XMLSchema-instance" xsi:noNamespaceSchemaLocation="http://sumo.dlr.de/xsd/duarouterConfiguration.xsd">

    <input>
        <net-file value="grossmehring.net.xml"/>
        <route-files value="grossmehring.trips.xml"/>
    </input>

    <output>
        <output-file value="grossmehring.rou.xml"/>
        <alternatives-output value="grossmehring.rou.alt.xml"/>
    </output>

    <report>
        <ignore-errors value="true"/>
    </report>

</configuration>
-->

<routes xmlns:xsi="http://www.w3.org/2001/XMLSchema-instance" xsi:noNamespaceSchemaLocation="http://sumo.dlr.de/xsd/routes_file.xsd">
    <vehicle id="0" depart="0.00">
        <route edges="39250125#1 -39250125#1 -39250125#0 492301097#1 491951649 1178802067 972620118 39581899#0 39581899#1 39581899#2 39581899#3 39581902 39249846#0 39249846#1 39249846#2 1408873028 491948315#0 491948315#2 39249487#0 39249487#1 39249487#2 39249487#3 23121373#0 23121373#2 39249494#0 39249494#1 29245465 63530605#0 29245466#0 29245466#2 29245466#3 29245808#0 29245808#1 29245812#0 29245812#1 -29246889#2 -29246889#1"/>
    </vehicle>
    <vehicle id="1" depart="2.00">
        <route edges="29268158#0 -29268158#0 -28124432#0 888862253#2 40850722#0 40850722#1 40850722#2 40850722#3 40850722#4 40850722#5 40850722#6 10860218#0 10860218#1 -63530605#1 -63530605#0 -29245465 -39249494#1 -39249494#0 -23121373#2 -23121373#0 -39249487#3 -39249487#2 -39249487#1 -39249487#0 -491948315#2 -491948315#0 -1408873028 -39249846#2 -39249846#1 -39249846#0 -39581902 -39581899#3 -39581899#2 -39581899#1 -39581899#0 -972620118 -1178802067 -491951649 -492301097#1 -492301097#0 -39249847 -888862248#1 -888862248#0 -27763364#2 -27763364#1 -27763364#0 -39221252#2 -39221252#1"/>
    </vehicle>
    <vehicle id="2" depart="4.00">
        <route edges="-1144362169#0 -201294777#0 -993326052 -209200599#14 -209200599#13 -209200599#12 -209200599#11 -209200599#10 -209200599#9 -209200599#8 -209200599#7 -209200599#6 -209200599#5 -209200599#4 -209200599#3 -209200599#2 -209200599#1 -209200599#0 -49602182 -28659884#2 -28659884#1 -28659884#0 -49602183#3 -49602183#2 -49602183#1 -49602183#0 -993259222#1 -993259222#0 -40850722#6 -40850722#5 -40850722#4 -40850722#3 -40850722#2 -29268161#5 -29268161#4 -29268161#3 29268163#0"/>
    </vehicle>
    <vehicle id="3" depart="6.00">
        <route edges="-888862245#1 -888862246 39221629#0 39221629#1 39221629#2 491947338 393035936#0 393035936#1 393035937 275155357#0 275155357#1 275155357#2 39249487#0 39249487#1 39249487#2 39249487#3 39249487#4 39249487#5 39249487#6 39249487#7 39249487#8 39249487#9 888765389 888765388 39249488 26574732 972620127 972620126 4772891 5010188 981834876 1157422842 26574728 1195055691 452452116 972620139 452452118 26352600 136441946 -993259203 -1010691528 -306794784#3 -306794784#2 -306794784#1 -306794784#0 26352608#0 26352608#1 26352608#2 26352608#3 26352608#4 26352608#5"/>
    </vehicle>
    <vehicle id="4" depart="8.00">
        <route edges="-39249104#1 39249104#1 26011858#1 26011858#2 258282731 -888765389 -39249487#9 -39249487#8 -39249487#7 -39249487#6 -39249487#5 -39249487#4 -39249487#3 -39249487#2 -39249487#1 -39249487#0 -491948315#2 -491948315#0 -1408873028 -39249846#2 -39249846#1 -39249846#0 -39581902 -39581899#3 -39581899#2 -39581899#1 -39581899#0 -972620118 -1178802067 -491951649 -492301097#1 -492301097#0 -39249847 -888862248#1 28005847"/>
    </vehicle>
    <vehicle id="5" depart="10.00">
        <route edges="-39250125#0 492301097#1 491951649 1178802067 972620118 39581899#0 39581899#1 39581899#2 39581899#3 39581902 39249846#0 39249846#1 39249846#2 1408873028 491948315#0 491948315#2 39249487#0 39249487#1 39249487#2 39249487#3 23121373#0 -23121373#0"/>
    </vehicle>
    <vehicle id="6" depart="12.00">
        <route edges="-26886600#1 26886600#1 -26886589#0 209200599#4 209200599#5 209200599#6 209200599#7 209200599#8 209200599#9 209200599#10 209200599#11 209200599#12 209200599#13 26798705#0 26798705#1 26798706"/>
    </vehicle>
    <vehicle id="7" depart="14.00">
        <route edges="-695585745#1 695585744 -695585743#1 -695585743#0 -39250125#1 -39250125#0 492301097#1 491951649 1178802067 972620118 39581899#0 39581899#1 39581899#2 39581899#3 39581902 39249846#0 39249846#1 39249846#2 1408873028 491948315#0 491948315#2 39249487#0 39249487#1 39249487#2 39249487#3 23121373#0 23121373#2 39249494#0 39249494#1 29245465 63530605#0 -63530605#0 -29245465"/>
    </vehicle>
    <vehicle id="8" depart="16.00">
        <route edges="865793681 -623048083#3 -623048083#2 -623048083#1 -623048083#0 -201294777#1 1144362169#0"/>
    </vehicle>
    <vehicle id="9" depart="18.00">
        <route edges="-29268161#5 29268161#5 40850722#2 40850722#3 40850722#4 29245818#0 29245818#1 29245818#2 26597834#0 26597834#1"/>
    </vehicle>
    <vehicle id="10" depart="20.00">
        <route edges="-26597833#0 -10860218#1 -10860218#0 993259222#0 993259222#1 49602183#0 49602183#1 49602183#2 49602183#3 28659884#0 28659884#1 28659884#2 -118615279#7 -118615279#6 -118615279#5 -118615279#4 -118615279#2 -118615279#1 -118615279#0 -118615270#1 -118615270#0 -26597838 -137465997#1 -137465997#0 23121377 888929582 23121376 32351310 1193277580 55605972"/>
    </vehicle>
    <vehicle id="11" depart="22.00">
        <route edges="-435771045#6 -435771045#5 -435771045#4 -435771045#3 -435771045#2 -435771045#1 -435771045#0 435771047 452452141 1195055689 452452109 -1195055691 -26574728 -1157422842 -981834876 26574727 889262457 26574729 -26574740 -26574739 -201294779 -201295570 -195071534#2 -195071534#1 -195071534#0 195071533 888765384#0 888765384#1 888765384#2 195071532 -10860218#3 -10860218#2 -10860218#1 -10860218#0 -40850722#6 -40850722#5 -40850722#4 -40850722#3 -40850722#2 -40850722#1 -40850722#0 -888862253#2 28124432#0 29268158#0 235721491#0 -235721491#2 -235721491#1"/>
    </vehicle>
    <vehicle id="12" depart="24.00">
        <route edges="-39249846#2 39249846#2 1408873028 491948315#0 491948315#2 39249487#0 39249487#1 39249487#2 39249487#3 23121373#0 23121373#2 39249494#0 39249494#1 29245465 63530605#0 63530605#1 10860218#2"/>
    </vehicle>
    <vehicle id="13" depart="26.00">
        <route edges="-993326052 -209200599#14 -209200599#13 -209200599#12 -209200599#11 -209200599#10 -209200599#9 -209200599#8 -209200599#7 -209200599#6 -209200599#5 -209200599#4 -209200599#3 -209200599#2 -209200599#1 -209200599#0 -49602182 -28659884#2 -28659884#1 -28659884#0 -49602183#3 -49602183#2 -49602183#1 -49602183#0 -993259222#1 -993259222#0 10860218#0 10860218#1 -63530605#1 -63530605#0 -29245465 -39249494#1 -39249494#0 -23121373#2 -23121373#0 39249487#4 39249487#5 39249487#6 39249487#7 39249487#8 39249487#9 258282730 888765387 -26011858#2 -31889463#1 31889456#1 31889456#2"/>
    </vehicle>
    <vehicle id="14" depart="28.00">
        <route edges="29268158#2 -29268158#2 -29268158#0 -28124432#0 888862253#2 40850722#0 40850722#1 40850722#2 40850722#3 40850722#4 40850722#5 40850722#6 10860218#0 10860218#1 -63530605#1 -63530605#0 -29245465 -39249494#1 -39249494#0 -23121373#2 -23121373#0 39249487#4 39249487#5 39249487#6 39249487#7 39249487#8 39249487#9 258282730 888765387 -26011858#2 31889466#1 -440394006#1 1147476135 -1147476135"/>
    </vehicle>
    <vehicle id="15" depart="30.00">
        <route edges="26352600 136441946 -136441946 -26352600 452452121 981834874 452452112 981834875 452452133 -1193277579 -171641221 171641223 972620120 888765380 891076045 888765382 891076046 27760019 -236779617 -726774988#2 -726774988#1 -726774988#0 -40850842 -201294776#1 -201294776#0 -1186196659 -1186196660 -41756401"/>
    </vehicle>
    <vehicle id="16" depart="32.00">
        <route edges="-40850722#6 -40850722#5 40850722#5 40850722#6 993259222#0 993259222#1 49602183#0 49602183#1 49602183#2 49602183#3 28659884#0 28659884#1 28659884#2 49602182 209200599#0 209200599#1 209200599#2 209200599#3 209200599#4 209200599#5 209200599#6 209200599#7 209200599#8 209200599#9 209200599#10 209200599#11 209200599#12 209200599#13 209200599#14 993326052 201294777#0 201294777#1 201294777#2 623048082 435771043 435771044 1394136971 40850842 726774988#0 726774988#1 726774988#2 236779617 171641218 889262459 27760021 972620120 888765380 891076045 888765382 891076046 27760019"/>
    </vehicle>
    <vehicle id="17" depart="34.00">
        <route edges="1417725911#1 1417725911#2 -39248708#1 -39248708#0 -31889244#4 -31889244#3 -31889244#2 -31889244#0 -201295574 -31889242 201295570 201294779 26574739 26574740 26574730 888765386 888862254 972620127 972620126 4772891"/>
    </vehicle>
    <vehicle id="18" depart="36.00">
        <route edges="-981834876 26574727 889262457 26574729 -26574740 -26574739 -201294779 -201295570 -195071534#2 -195071534#1 -195071534#0 195071533 888765384#0 888765384#1 888765384#2 195071532 -10860218#3 -10860218#2 -10860218#1 -10860218#0 -40850722#6 -40850722#5 -40850722#4 -40850722#3 -40850722#2 -40850722#1 -40850722#0 -888862253#2 28124432#0 29268158#0 29268158#2 29268158#3 -29268160 440561325#1 440561325#0"/>
    </vehicle>
    <vehicle id="19" depart="38.00">
        <route edges="888862255 888765386 888862254 972620127 972620126 4772891 972620125 889262457 26574729 -26574740 -26574739 -201294779 -201295570 -195071534#2 -195071534#1 -195071534#0 195071533 888765384#0 888765384#1 888765384#2 195071532 -10860218#3 -10860218#2 -10860218#1 -10860218#0 993259222#0 993259222#1 49602183#0 49602183#1 49602183#2 49602183#3 28659884#0 28659884#1 28659884#2 49602182 209200599#0 209200599#1 209200599#2"/>
    </vehicle>
    <vehicle id="20" depart="40.00">
        <route edges="26574729 -26574740 -26574739 -201294779 -201295570 -195071534#2 25969912#0 25969912#1 -26939604#3 25614138#0 -26939651#1 26939651#1"/>
    </vehicle>
    <vehicle id="21" depart="42.00">
        <route edges="-697101884#1 -697101884#0 -697101883 -623048083#5 -623048083#4 -623048083#3 -623048083#2 -623048083#1 -623048083#0 -201294777#1 -201294777#0 -993326052 -209200599#14 -209200599#13 -209200599#12 -209200599#11 -209200599#10 -209200599#9 -26825349#7 -26825349#6 -26825349#5 -26825349#4 -26825349#2 26825349#2"/>
    </vehicle>
    <vehicle id="22" depart="44.00">
        <route edges="26886589#2 26886589#3 -60920580#1 -60920580#0 26886602#1 26886602#2 118615279#6 118615279#7 -28659884#2 -28659884#1 -28659884#0 -49602183#3 -49602183#2 -49602183#1 -49602183#0 -993259222#1 -993259222#0 10860218#0 10860218#1 -63530605#1 -63530605#0 -29245465 -39249494#1 -39249494#0 -23121373#2 31889507#0 31889507#1 31889507#2 -31889507#2"/>
    </vehicle>
    <vehicle id="23" depart="46.00">
        <route edges="-440395172#0 -39221252#0 888862245#1 39221608#0 39221608#1 39221608#2 39221608#3 393035936#0 393035936#1 393035937 275155357#0 275155357#1 275155357#2 39249487#0 39249487#1 39249487#2 39249487#3 23121373#0 23121373#2 39249494#0 39249494#1 29245465 63530605#0 63530605#1 -10860218#1 -10860218#0 993259222#0 993259222#1 49602183#0 49602183#1 49602183#2 49602183#3 28659884#0 28659884#1 28659884#2 49602182 209200599#0 209200599#1 209200599#2 209200599#3 209200599#4 209200599#5 209200599#6 209200599#7 209200599#8 209200599#9 209200599#10 209200599#11 209200599#12 26939604#0 -26939607#2 -26939607#1 -513080399"/>
    </vehicle>
    <vehicle id="24" depart="48.00">
        <route edges="-64279761#1 -64279761#0 -39250220 -39250278 -972620117 -39250279#1 -39250279#0 -1178802066 -39250218 -39249844#1 -39249844#0 -25479305#2 -25479305#1 -25479305#0 39581899#0 39581899#1 39581899#2 39581899#3 39581902 39249846#0 39249846#1 39249846#2 1408873028 491948315#0 491948315#2 39249487#0 39249487#1 39249487#2 39249487#3 23121373#0 23121373#2 39249494#0 39249494#1 29245465 63530605#0 63530605#1 -10860218#1 -10860218#0 993259222#0 993259222#1 49602183#0 49602183#1 49602183#2 49602183#3 28659884#0 28659884#1 28659884#2 49602182 209200599#0 209200599#1 209200599#2 209200599#3 209200599#4 209200599#5 209200599#6 209200599#7 209200599#8 209200599#9 209200599#10 209200599#11 209200599#12 26939604#0 26939604#1 27761907#0"/>
    </vehicle>
    <vehicle id="25" depart="50.00">
        <route edges="-27763364#1 -27763364#0 -39221252#2 -39221252#1 -39221252#0 888862245#1 39221608#0 39221608#1 39221608#2 39221608#3 393035936#0 393035936#1 393035937 275155357#0 275155357#1 275155357#2 39249487#0 39249487#1 39249487#2 39249487#3 23121373#0 23121373#2 39249494#0 39249494#1 29245465 63530605#0 63530605#1 -10860218#1 -10860218#0 993259222#0 993259222#1 49602183#0 49602183#1 49602183#2 49602183#3 28659884#0 28659884#1 28659884#2 49602182 209200599#0 209200599#1 25614139#0 25614139#1 -27761907#7 -27761907#6 26939653"/>
    </vehicle>
    <vehicle id="26" depart="52.00">
        <route edges="697101879#1 -697101879#1 -697101881#2 -697101882 -623048083#2 -623048083#1 -623048083#0 -201294777#1 -201294777#0 -993326052 -209200599#14 -209200599#13 -209200599#12 -209200599#11 -209200599#10 -209200599#9 -209200599#8 -209200599#7 -209200599#6 -209200599#5 -209200599#4 -209200599#3 -209200599#2 -209200599#1 -209200599#0 -49602182"/>
    </vehicle>
    <vehicle id="27" depart="54.00">
        <route edges="-26352601#0 240067350#3 306794784#0 306794784#1 306794784#2 306794784#3 1010691528 993259203 -136441946 -26352600 452452121 981834874 452452112 981834875 452452133 -1193277579 -171641221 171641223 972620120 888765380 891076045 888765382 891076046 27760019 -236779617 -726774988#2 -726774988#1 -726774988#0 -40850842 -201294776#1 -201294776#0 -1186196659 -1186196660 27765764 118615271#0 118615271#1 -118615271#1"/>
    </vehicle>
    <vehicle id="28" depart="56.00">
        <route edges="306794784#2 306794784#3 1010691528 993259203 -136441946 -26352600 452452121 981834874 452452112 981834875 452452133 -1193277579 -171641221 171641223 972620120 888765380 891076045 888765382 891076046 27760019 -236779617 -726774988#2 -726774988#1 -726774988#0 -40850842 -1394136971 -435771044 -435771043 -623048082 -201294777#2 -201294777#1 1144362169#0 1144362169#1 1144362169#2"/>
    </vehicle>
    <vehicle id="29" depart="58.00">
        <route edges="-29245467#2 -29245467#1 -29245467#0 -29245466#0 63530605#1 -10860218#1 -25614140#5"/>
    </vehicle>
    <vehicle id="30" depart="60.00">
        <route edges="26825328 27764410 28904767 26825330 -118612024#0 -118612040 -55605972 -1193277580 -32351310 137500968 891014587 888929581 32351317 891014590 891014589 137465992 137465997#0 137465997#1 26597838 118615270#0 118615270#1 118615279#0 118615279#1 118615279#2 118615279#4 118615279#5 118615279#6 118615279#7 -28659884#2 -28659884#1 -28659884#0 -49602183#3 -49602183#2 -49602183#1 -49602183#0 -993259222#1 -993259222#0 10860218#0 10860218#1 -63530605#1 -63530605#0 -29245465 -39249494#1 -39249494#0 -23121373#2 31889507#0 31889507#1 31889507#2 -31889507#2"/>
    </vehicle>
    <vehicle id="31" depart="62.00">
        <route edges="25614139#0 -25614139#0 -209200599#1 -209200599#0 -49602182 -28659884#2 -28659884#1 -28659884#0 -49602183#3 -49602183#2 -49602183#1 -49602183#0 -993259222#1 -993259222#0 -40850722#6 -40850722#5 -40850722#4 -40850722#3 -40850722#2 -40850722#1 -40850722#0 -888862253#2 -888862253#1 -888862253#0 -235715209 235715213 1186196662 40850723 48042032 31889000"/>
    </vehicle>
    <vehicle id="32" depart="64.00">
        <route edges="-201294776#0 201294776#0 201294776#1 -1394136971 -435771044 -435771043 -623048082 -201294777#2 -201294777#1 -201294777#0 25614135#0 25614135#1 -27761910#1"/>
    </vehicle>
    <vehicle id="33" depart="66.00">
        <route edges="235715214 23121378 235715209 888862253#0 888862253#1 888862253#2 40850722#0 40850722#1 40850722#2 40850722#3 40850722#4 40850722#5 40850722#6 10860218#0 10860218#1 -63530605#1 -63530605#0 -29245465 -39249494#1 -39249494#0 -23121373#2 31889507#0 31889507#1"/>
    </vehicle>
    <vehicle id="34" depart="68.00">
        <route edges="-440633925 -26825348 26825347#1 26825349#5 26825349#6 26825349#7 -209200599#8 -209200599#7 -209200599#6 -209200599#5 -209200599#4 -209200599#3 -209200599#2 -209200599#1 -209200599#0 -49602182 -28659884#2 -28659884#1 -28659884#0 -49602183#3 -49602183#2 -49602183#1 -49602183#0 -993259222#1 -993259222#0 -40850722#6 -40850722#5 -40850722#4 -40850722#3 -40850722#2 -40850722#1 -40850722#0 -888862253#2 -888862253#1 -888862253#0 -235715209 235715213 23121378 235715209"/>
    </vehicle>
    <vehicle id="35" depart="70.00">
        <route edges="697101884#0 -697101884#0 -697101883 -623048083#5 -623048083#4 -623048083#3 -623048083#2 -623048083#1 -623048083#0 201294777#2 623048082 435771043 435771044 1394136971 40850842 726774988#0 726774988#1 726774988#2 236779617 171641218 889262459 27760020 171641221 1193277579 452452136 889262458 1195055690 1195055689 452452109 -1195055691 -26574728 -1157422842 -981834876 26574727 889262457 26574729 -26574740 -26574739 -201294779 -201295570 31889242 201295574 31889244#0 31889244#2 31889244#3 31889244#4 -31889244#4"/>
    </vehicle>
    <vehicle id="36" depart="72.00">
        <route edges="23121376 32351310 1193277580 55605972 118612040 118612024#0 -118612024#0 -118612040 -55605972 -1193277580 -32351310 137500968 891014587 888929581 32351317 891014590 891014589 137465992 137465997#0 137465997#1 26597838 118615270#0 118615270#1 118615279#0 118615279#1 118615279#2 118615279#4 118615279#5 118615279#6 118615279#7 -28659884#2 -28659884#1 -28659884#0 -49602183#3 -49602183#2 -49602183#1 -49602183#0 -993259222#1 -993259222#0 10860218#0 10860218#1 -63530605#1 -63530605#0 -29245465 -39249494#1 -39249494#0 -23121373#2 -23121373#0 -39249487#3 -39249487#2 -39249487#1 -39249487#0 -275155357#2 -275155357#1 -275155357#0 -393035937 -393035936#1 -393035936#0 393035936#0 393035936#1 393035937"/>
    </vehicle>
    <vehicle id="37" depart="74.00">
        <route edges="25614132 25614134#0 25614134#1 25614134#2 25614134#3 25614134#4 25614134#5 25614134#6 -993326052 -209200599#14 -209200599#13 -209200599#12 -209200599#11 -209200599#10 -209200599#9 -209200599#8 -209200599#7 -209200599#6 -209200599#5 -209200599#4 -209200599#3 -209200599#2 -209200599#1 -209200599#0 -49602182 -28659884#2 -28659884#1 -28659884#0 -49602183#3 -49602183#2 -49602183#1 -49602183#0 -993259222#1 -993259222#0 -40850722#6 -40850722#5 -40850722#4 -40850722#3 -40850722#2 -29268161#5 -29268177#1"/>
    </vehicle>
    <vehicle id="38" depart="76.00">
        <route edges="25614134#3 25614134#4 25614134#5 25614134#6 -993326052 -209200599#14 -209200599#13 26939604#0 26939604#1 27761907#0 27761907#1 27761907#2"/>
    </vehicle>
    <vehicle id="39" depart="78.00">
        <route edges="48234440 48234439 -48234439 -48234440 -452452128 452452126 981834875 972620121 889262458 1195055690 1195055689 452452109 -1195055691 -26574728 -1157422842 -981834876 26574727 889262457 26574729 -26574740 -26574739 -201294779 -201295570 -195071534#2 -195071534#1 -195071534#0 195071533 888765384#0 888765384#1 888765384#2 195071532 -10860218#3 -10860218#2 -10860218#1 -10860218#0 -40850722#6 -40850722#5 -40850722#4 -40850722#3"/>
    </vehicle>
    <vehicle id="40" depart="80.00">
        <route edges="-1408873028 -39249846#2 39249846#2 1408873028 491948315#0 491948315#2 39249487#0 39249487#1 39249487#2 39249487#3 39249487#4 39249487#5 39249487#6 39249487#7 39249487#8 39249487#9 888765389 888765388 39249488 26574732 972620127 972620126 4772891 972620125 889262457 888862255"/>
    </vehicle>
    <vehicle id="41" depart="82.00">
        <route edges="-209200599#3 -209200599#2 209200599#2 209200599#3 209200599#4 209200599#5 209200599#6 209200599#7 209200599#8 209200599#9 209200599#10 209200599#11 209200599#12 209200599#13 209200599#14 993326052 -25614134#6 -25614134#5 -25614134#4 -25614134#3 440633887 26799422#1 26799417#1 -697101884#1"/>
    </vehicle>
    <vehicle id="42" depart="84.00">
        <route edges="-25973246#0 25332010#2 28659884#0"/>
    </vehicle>
    <vehicle id="43" depart="86.00">
        <route edges="435771045#13 435771045#14 435771045#15 435771045#16 435771045#17 435771045#18 435771045#19 -240062921 435771047 452452141 1195055689 972620119 972620139 972620138 981834874 452452112 981834875 452452133 -1193277579 -171641221 171641223 972620120 888765380 891076045 888765382 891076046 27760019 -236779617 -726774988#2 -726774988#1 -726774988#0 -40850842 -1394136971 -435771044 -435771043 -623048082 -201294777#2 -201294777#1 -201294777#0 25614135#0 25614135#1 -27761910#1 -27761910#0 27761910#0"/>
    </vehicle>
    <vehicle id="44" depart="88.00">
        <route edges="1147476135 -1147476135 -440394006#0 31889466#3"/>
    </vehicle>
    <vehicle id="45" depart="90.00">
        <route edges="-28005846#0 491951649 1178802067 972620118 39581899#0 39581899#1 39581899#2 39581899#3 39581902 39249846#0 39249846#1 39249846#2 1408873028 491948315#0 491948315#2 39249487#0 39249487#1 39249487#2 39249487#3 23121373#0 23121373#2 39249494#0 39249494#1 29245465 63530605#0 63530605#1 -10860218#1 -10860218#0 993259222#0 993259222#1 49602183#0 49602183#1 49602183#2 49602183#3 28659884#0 28659884#1 28659884#2 49602182 209200599#0 209200599#1 209200599#2 209200599#3 209200599#4 209200599#5 209200599#6 209200599#7 209200599#8 -26825349#7 -26825349#6 -26825349#5 26825349#5 26825349#6"/>
    </vehicle>
    <vehicle id="46" depart="92.00">
        <route edges="25973246#1 -25973247#3 -25973247#2 -25973247#1 -25973247#0 40850722#4 40850722#5 40850722#6"/>
    </vehicle>
    <vehicle id="47" depart="94.00">
        <route edges="201294777#0 -201294777#0 -993326052 -209200599#14 -209200599#13 26939604#0 26939604#1 27761907#0 27761907#1 27761907#2 27761907#3 27761907#4 -26939652#0"/>
    </vehicle>
    <vehicle id="48" depart="96.00">
        <route edges="435771045#6 435771045#7 435771045#8 435771045#9 435771045#10 435771045#11 435771045#12 435771045#13 435771045#14 435771045#15 435771045#16 435771045#17 435771045#18 435771045#19 -240062921 435771047 452452141 1195055689 452452109 -1195055691 -26574728 -1157422842 -981834876 26574727 889262457 26574729 -26574740 -26574739 -201294779 -201295570 -195071534#2 -195071534#1 -195071534#0 195071533 888765384#0 888765384#1 888765384#2 195071532 -10860218#3 -10860218#2 -10860218#1 -25614140#5 -25614140#4 -25614140#3 440786726 -440786726"/>
    </vehicle>
    <vehicle id="49" depart="98.00">
        <route edges="26799414#1 25614134#2 440633887 26799422#1 26799417#1 -697101884#1 697101879#0 -697101881#2 -697101881#1 -697101881#0"/>
    </vehicle>
    <vehicle id="50" depart="100.00">
        <route edges="-26799425 118615271#2 25614132 25614134#0 25614134#1 25614134#2 25614134#3 25614134#4 25614134#5 25614134#6 -993326052 -209200599#14 -209200599#13 -209200599#12 -209200599#11 -209200599#10 -209200599#9 -209200599#8 -209200599#7 -209200599#6 -209200599#5 -209200599#4 -209200599#3 -209200599#2 -209200599#1 -209200599#0 -49602182 -28659884#2 -28659884#1 -28659884#0 -49602183#3 -49602183#2 -49602183#1 -49602183#0 -993259222#1 -993259222#0 -40850722#6 -40850722#5 -40850722#4 -40850722#3 -40850722#2 -40850722#1 -40850722#0 -888862253#2 -888862253#1 29246889#0 29246889#1 29246889#2 -29245812#1 -29245812#0"/>
    </vehicle>
    <vehicle id="51" depart="102.00">
        <route edges="1147476135 -1147476135 440394006#1 -31889466#1 26011858#2 258282731 888765388 39249488 26574732 972620127 972620126 4772891 972620125 889262457 26574729 -26574740 -26574739 -201294779 -201295570 -195071534#2 25969912#0 25969912#1 -26939604#3 -26939604#2 -26939604#1 -26939604#0 209200599#13 209200599#14 993326052 -25614134#6 -25614134#5 -25614134#4 -25614134#3 -25614134#2 -25614134#1 -25614134#0 26825331#0"/>
    </vehicle>
    <vehicle id="52" depart="104.00">
        <route edges="-697101881#2 697101881#2 -697101879#0 697101884#1 26799423#0 26799423#1 -29247083 -26799424#0"/>
    </vehicle>
    <vehicle id="53" depart="106.00">
        <route edges="435771045#16 435771045#17 435771045#18 435771045#19 -240062921 435771047 452452141 1195055689 452452109 -1195055691 -26574728 -1157422842 -981834876 26574727 889262457 888862255 888765386 26574731 -39249488 -888765388 -258282731 -26011858#2 31889466#1 -440394006#1 1147476135 31889467#0 -1147476136#2 1147476140#0"/>
    </vehicle>
    <vehicle id="54" depart="108.00">
        <route edges="29246888#0 29246891#1 29246891#2 29246891#3 -29246889#1 -29246889#0 888862253#1 888862253#2 40850722#0 40850722#1 40850722#2 40850722#3 40850722#4 40850722#5 40850722#6 10860218#0 10860218#1 10860218#2 10860218#3 195071531 31888393 31888357 195071534#0 195071534#1 195071534#2 201295570 201294779 26574739 26574740 26574730 888765386 888862254 972620127 972620126 4772891 5010188 981834876 1157422842 26574728 1195055691 452452116 972620139 972620138 981834874 452452112 981834875 972620121 889262458 1195055690 1195055689 972620119"/>
    </vehicle>
    <vehicle id="55" depart="110.00">
        <route edges="26574728 -26574728 26352571 1157422841 136441947#0 136441947#1 -43029684#2 -43029684#1"/>
    </vehicle>
    <vehicle id="56" depart="112.00">
        <route edges="29268163#0 29268164 -28124432#2 -28124432#0 888862253#2 40850722#0 40850722#1 40850722#2 40850722#3 40850722#4 40850722#5 40850722#6 10860218#0 10860218#1 -63530605#1 -63530605#0 -29245465 -39249494#1 -39249494#0 -23121373#2 -23121373#0 -39249487#3 -39249487#2 -39249487#1 -39249487#0 -275155357#2 -275155357#1 -275155357#0 -393035937 -393035936#1 -393035936#0 -39221608#3 -39221608#2 -39221608#1 39221263#0"/>
    </vehicle>
    <vehicle id="57" depart="114.00">
        <route edges="-25973247#1 -25973247#0 40850722#4 40850722#5 40850722#6 10860218#0 10860218#1 -63530605#1 -63530605#0 -29245465 -39249494#1 -39249494#0 -23121373#2 -23121373#0 39249487#4 39249487#5 39249487#6 39249487#7 39249487#8 39249487#9 258282730 888765387 -26011858#2 -31889463#1 31889456#1 -31889456#1"/>
    </vehicle>
    <vehicle id="58" depart="116.00">
        <route edges="-201294777#1 -201294777#0 -993326052 -209200599#14 -209200599#13 -209200599#12 -209200599#11 -209200599#10 -209200599#9 -209200599#8 -209200599#7 -209200599#6 -209200599#5 -209200599#4 -209200599#3 -209200599#2 -209200599#1 -209200599#0 -49602182 -28659884#2 -28659884#1 -28659884#0 -49602183#3 -49602183#2 -49602183#1 -49602183#0 -993259222#1 -993259222#0 10860218#0 10860218#1 -63530605#1 -63530605#0 -29245465 -39249494#1 -39249494#0 -23121373#2 -23121373#0 -39249487#3 -39249487#2 -39249487#1 -39249487#0 -491948315#2 -491948315#0 -1408873028 -39249846#2 -39249846#1 -39249846#0 -39581902 -39581899#3 -39581899#2 -39581899#1 -39581899#0 25479305#0 25479305#1 25479305#2 39249844#0 39249844#1 39250218 1178802066 39250279#0 39250279#1"/>
    </vehicle>
    <vehicle id="59" depart="118.00">
        <route edges="435771046#2 435771046#3 435771046#4 435771047 452452141 1195055689 452452109 -1195055691 -26574728 -1157422842 -981834876 26574727 889262457 26574729 -26574740 -26574739 -201294779 -201295570 -195071534#2 -195071534#1 -195071534#0 195071533 888765384#0 888765384#1 888765384#2 195071532 -10860218#3 -10860218#2 -10860218#1 -10860218#0 993259222#0 993259222#1 49602183#0 49602183#1 49602183#2 49602183#3 28659884#0 28659884#1 28659884#2 -118615279#7 -118615279#6 -118615279#5 -118615279#4 -118615279#2 -118615279#1 -118615279#0 -118615270#1 -118615270#0 -26597838 -137465997#1 -137465997#0 23121377 888929582 891014588 891014587 137465995 -181295154 -23121379 137685139 31953246 181295156 137685138 137685142 -287294304 -31953245#1"/>
    </vehicle>
    <vehicle id="60" depart="120.00">
        <route edges="888862248#0 888862248#1 39249847 492301097#0 492301097#1 491951649 1178802067 972620118 39581899#0 39581899#1 39581899#2 39581899#3 39581902 39249846#0 39249846#1 39249846#2 1408873028 491948315#0 491948315#2 39249487#0 39249487#1 39249487#2 39249487#3 23121373#0 23121373#2 39249494#0 39249494#1 29245465 63530605#0 63530605#1 -10860218#1 -10860218#0 993259222#0 993259222#1 49602183#0"/>
    </vehicle>
    <vehicle id="61" depart="122.00">
        <route edges="-888862253#0 -235715209 235715213 23121378 235715209 888862253#0 888862253#1 888862253#2 40850722#0 40850722#1 40850722#2 40850722#3 40850722#4 40850722#5 40850722#6 10860218#0 10860218#1 -63530605#1 -63530605#0 -29245465 -39249494#1 -39249494#0 -23121373#2 -23121373#0 -39249487#3 -39249487#2 -39249487#1 -39249487#0 -275155357#2 -275155357#1 -275155357#0 -393035937 -393035936#1 -393035936#0 -491947338 -39221629#2 -39221629#1 -39221629#0 888862246"/>
    </vehicle>
    <vehicle id="62" depart="124.00">
        <route edges="26825340#1 -26825340#1 -26825340#0 440633924#3 -26825348 26825347#1 26825349#5 26825349#6 26825349#7 -209200599#8 -209200599#7 -209200599#6 -209200599#5 -209200599#4 -209200599#3 -209200599#2 -209200599#1 -209200599#0 -49602182 -28659884#2 -28659884#1 -28659884#0 -49602183#3 -49602183#2 -49602183#1 -49602183#0 -993259222#1 -993259222#0 10860218#0 10860218#1 -63530605#1 -63530605#0 -29245465 -39249494#1 -39249494#0 -23121373#2 -23121373#0 -39249487#3 -39249487#2 -39249487#1 -39249487#0 -491948315#2 -491948315#0 -1408873028 -39249846#2 -39249846#1 -39249846#0 -39581902 -39581899#3 -28005849#2 -28005849#1 28005850#0"/>
    </vehicle>
    <vehicle id="63" depart="126.00">
        <route edges="39248708#0 39248708#1 -39248708#1 -39248708#0 -31889244#4 -31889244#3 -31889244#2 -31889244#0 -201295574 -31889242 201295570 201294779 26574739 26574740 26574730 888765386 26574731 -39249488 -888765388 -888765389 -39249487#9 -39249487#8 -39249487#7 -39249487#6 -39249487#5 -39249487#4 -39249487#3 -39249487#2 -39249487#1 -39249487#0 -275155357#2 -275155357#1 -275155357#0 -393035937 -393035936#1 -393035936#0 393035936#0 393035936#1 393035937"/>
    </vehicle>
    <vehicle id="64" depart="128.00">