<?xml version="1.0" encoding="UTF-8"?>

<!-- generated on 2025-12-02 16:01:06 by Eclipse SUMO polyconvert Version 1.18.0
<configuration xmlns:xsi="http://www.w3.org/2001/XMLSchema-instance" xsi:noNamespaceSchemaLocation="http://sumo.dlr.de/xsd/polyconvertConfiguration.xsd">

    <input>
        <net-file value="manching.net.xml"/>
        <osm-files value="manching.osm"/>
        <type-file value="typemap.xml"/>
    </input>

    <output>
        <output-file value="manching.poly.xml"/>
    </output>

    <processing>
        <offset.x value="-684762.50"/>
        <offset.y value="-5400093.10"/>
    </processing>

</configuration>
-->

<additional xmlns:xsi="http://www.w3.org/2001/XMLSchema-instance" xsi:noNamespaceSchemaLocation="http://sumo.dlr.de/xsd/additional_file.xsd">
    <location netOffset="-1369525.00,-10800186.20" convBoundary="-691043.39,-5404880.74,6280.88,4787.64" origBoundary="11.426007,48.683320,11.595631,48.768068" projParameter="+proj=utm +zone=32 +ellps=WGS84 +datum=WGS84 +units=m +no_defs"/>

    <poly id="100361356" type="unknown" color="51,128,255" fill="0" layer="-1.00" shape="-689782.498184,-5401861.975122 -689796.702249,-5401872.744436 -689810.938896,-5401879.743010 -689821.832968,-5401883.519089 -689834.184167,-5401883.414344 -689844.954478,-5401880.944674 -689856.099403,-5401875.516324"/>
    <poly id="100361362" type="unknown" color="51,128,255" fill="0" layer="-1.00" shape="-685600.602618,-5402141.077834 -685641.331325,-5402110.124593"/>
    <poly id="100361376" type="unknown" color="51,128,255" fill="0" layer="-1.00" shape="-685505.410583,-5402126.015248 -685486.096896,-5402163.423030 -685483.438714,-5402168.576387 -685479.870316,-5402181.043404 -685475.718253,-5402196.484308"/>
    <poly id="1025846603" type="unknown" color="51,128,255" fill="0" layer="-1.00" shape="-681919.129994,-5400160.933810 -681906.669032,-5400157.122805 -681884.734471,-5400153.283808 -681863.390442,-5400148.518703 -681835.079819,-5400139.870473"/>
    <poly id="1025846604" type="unknown" color="51,128,255" fill="0" layer="-1.00" shape="-682590.680711,-5400237.668266 -682589.466372,-5400239.864268 -682583.723608,-5400281.142822"/>
    <poly id="1033178659" type="unknown" color="51,128,255" fill="0" layer="-1.00" shape="-684693.496237,-5402641.730914 -684733.568029,-5402549.865941"/>
    <poly id="1034385467" type="unknown" color="51,128,255" fill="0" layer="-1.00" shape="-686826.201581,-5403006.854251 -686827.701814,-5403021.389709 -686859.425502,-5403236.328188"/>
    <poly id="1034385470" type="unknown" color="51,128,255" fill="0" layer="-1.00" shape="-687077.811237,-5402782.415574 -687082.192838,-5402788.989185 -687115.432884,-5402842.075278 -687153.615811,-5402913.035073 -687161.887666,-5402932.018639 -687169.750295,-5402945.470204 -687184.174598,-5402963.463276 -687203.913841,-5403006.452027 -687212.473958,-5403034.702003 -687214.779842,-5403067.076794 -687215.350354,-5403092.118526 -687207.176104,-5403136.947921 -687200.518093,-5403165.493106"/>
    <poly id="1034385471" type="unknown" color="51,128,255" fill="0" layer="-1.00" shape="-686665.854071,-5402796.790388 -686636.258916,-5402779.981163 -686607.739222,-5402757.977429 -686598.099128,-5402738.558857 -686596.129659,-5402720.369638 -686600.304714,-5402634.832261 -686603.275701,-5402616.225639 -686607.035845,-5402598.034186 -686610.872370,-5402577.275016 -686624.036521,-5402555.251293 -686626.120064,-5402548.721280 -686632.792032,-5402538.112890 -686638.022081,-5402535.134704 -686643.370631,-5402534.619321 -686645.809701,-5402538.637635 -686643.069010,-5402543.866679 -686637.807053,-5402547.822956 -686630.463673,-5402551.922737 -686624.036521,-5402555.251293"/>
    <poly id="1040498057" type="unknown" color="51,128,255" fill="0" layer="-1.00" shape="-690667.711920,-5402529.243337 -690690.391528,-5402528.809661 -690726.601721,-5402532.890624 -690763.499688,-5402540.575841 -690829.752615,-5402562.269456 -690960.950977,-5402612.532955 -691004.523201,-5402627.560819 -691043.389894,-5402638.199566"/>
    <poly id="1064823423" type="unknown" color="51,128,255" fill="0" layer="-1.00" shape="-685528.923236,-5401993.646387 -685510.393584,-5401978.918561 -685489.661847,-5401960.390973 -685471.311540,-5401942.898374 -685454.845867,-5401925.423084 -685439.168084,-5401907.951359 -685427.009877,-5401892.731475"/>
    <poly id="1064823424" type="unknown" color="51,128,255" fill="0" layer="-1.00" shape="-684995.466970,-5400995.175822 -684974.548784,-5400981.357555 -684955.756771,-5400969.378367 -684935.728159,-5400957.169227 -684897.868397,-5400936.005340"/>
    <poly id="1064823425" type="unknown" color="51,128,255" fill="0" layer="-1.00" shape="-681943.205759,-5399890.407198 -681922.991869,-5399880.060948 -681905.041048,-5399870.502540"/>
    <poly id="1064823426" type="unknown" color="51,128,255" fill="0" layer="-1.00" shape="-682014.143412,-5399924.616366 -681979.461935,-5399908.178063 -681952.202071,-5399895.003448 -681943.205759,-5399890.407198"/>
    <poly id="1064823427" type="unknown" color="51,128,255" fill="0" layer="-1.00" shape="-681905.041048,-5399870.502540 -681878.708478,-5399855.366861 -681848.870871,-5399837.409759 -681823.421346,-5399821.413220 -681804.359198,-5399809.002089"/>
    <poly id="1064823430" type="unknown" color="51,128,255" fill="0" layer="-1.00" shape="-681157.735734,-5399765.988933 -681123.354296,-5399774.646912"/>
    <poly id="1066900831" type="unknown" color="51,128,255" fill="0" layer="-1.00" shape="-687730.317347,-5400905.323090 -687737.873217,-5400927.943281 -687749.620473,-5400958.209693 -687738.439300,-5400973.813316 -687709.058956,-5401002.122502"/>
    <poly id="1066901295" type="unknown" color="51,128,255" fill="0" layer="-1.00" shape="-686164.817132,-5399729.938069 -686165.426006,-5399798.141500 -686170.449087,-5399807.718966 -686187.425856,-5399828.324619 -686206.266555,-5399854.732502 -686243.016039,-5399917.375670"/>
    <poly id="1066902606" type="unknown" color="51,128,255" fill="0" layer="-1.00" shape="-684688.462579,-5399259.071950 -684694.078247,-5399245.248709 -684700.022561,-5399236.632490 -684705.513448,-5399230.827494 -684712.850260,-5399222.613267 -684723.281774,-5399216.971273 -684737.099418,-5399208.414505 -684746.362641,-5399202.934207 -684753.982595,-5399196.843350 -684758.387569,-5399192.048397 -684759.938503,-5399187.871403 -684756.548811,-5399183.531429"/>
    <poly id="107418678" type="unknown" color="51,128,255" fill="0" layer="-1.00" shape="-689274.853789,-5401423.681941 -689210.370338,-5401392.635285"/>
    <poly id="107418679" type="unknown" color="51,128,255" fill="0" layer="-1.00" shape="-688599.903456,-5401317.709737 -688520.107525,-5401339.644432 -688369.755784,-5401385.266723"/>
    <poly id="107418681" type="unknown" color="51,128,255" fill="0" layer="-1.00" shape="-690119.329740,-5401984.270586 -690036.944990,-5401940.756259"/>
    <poly id="107420247" type="unknown" color="51,128,255" fill="0" layer="-1.00" shape="-687268.216355,-5401847.694892 -687256.517237,-5401852.187865 -687221.082838,-5401864.932469"/>
    <poly id="107420248" type="unknown" color="51,128,255" fill="0" layer="-1.00" shape="-690182.461131,-5402010.055862 -690147.431106,-5401997.274988 -690119.329740,-5401984.270586"/>
    <poly id="107420250" type="unknown" color="51,128,255" fill="0" layer="-1.00" shape="-688027.060480,-5401486.099460 -687984.167641,-5401498.751778 -687944.720158,-5401511.637784 -687917.043938,-5401521.166487 -687887.322427,-5401531.552264 -687854.407722,-5401543.681365 -687825.220116,-5401555.986733 -687786.228969,-5401572.257738 -687736.336198,-5401597.287403 -687677.868275,-5401628.347095 -687532.122871,-5401711.882310 -687517.604095,-5401720.234110 -687501.826886,-5401729.924678 -687489.798642,-5401737.311405"/>
    <poly id="107420251" type="unknown" color="51,128,255" fill="0" layer="-1.00" shape="-687120.600318,-5401894.197369 -687000.544660,-5401920.520104"/>
    <poly id="107420256" type="unknown" color="51,128,255" fill="0" layer="-1.00" shape="-689170.945857,-5401374.966838 -689113.593752,-5401352.504239 -689061.963207,-5401334.597846 -689007.415887,-5401320.168525 -688970.403707,-5401312.667761 -688921.982888,-5401303.931290 -688864.173356,-5401297.762330 -688818.406647,-5401295.541455 -688756.901416,-5401296.673413 -688699.395553,-5401301.405116 -688651.228345,-5401308.317952 -688621.973561,-5401312.770002 -688599.903456,-5401317.709737"/>
    <poly id="107426346" type="unknown" color="51,128,255" fill="0" layer="-1.00" shape="-686776.558882,-5401785.135187 -686789.990460,-5401748.288364 -686929.058066,-5401366.811025 -687043.064946,-5401057.615694 -687087.269384,-5400942.917295 -687122.512040,-5400856.510706 -687187.424337,-5400708.950653 -687226.033612,-5400627.593222 -687267.147213,-5400545.482555 -687335.525478,-5400413.599705"/>
    <poly id="107426347" type="unknown" color="51,128,255" fill="0" layer="-1.00" shape="-687335.525478,-5400413.599705 -687540.359370,-5400042.749139"/>
    <poly id="107426348" type="unknown" color="51,128,255" fill="0" layer="-1.00" shape="-686561.078566,-5402416.475447 -686598.401482,-5402295.903198"/>
    <poly id="10765114" type="unknown" color="51,128,255" fill="0" layer="-1.00" shape="-685937.252076,-5402120.078888 -685901.383534,-5402126.804017 -685839.107974,-5402125.442648 -685776.595920,-5402118.264779 -685752.852125,-5402112.958002 -685732.221770,-5402106.573778 -685694.415884,-5402095.120050 -685627.061786,-5402068.321352 -685610.761769,-5402062.156597"/>
    <poly id="10765117" type="unknown" color="51,128,255" fill="0" layer="-1.00" shape="-684658.406733,-5401987.026946 -684629.681645,-5402113.591353"/>
    <poly id="10765119" type="unknown" color="51,128,255" fill="0" layer="-1.00" shape="-686442.427028,-5402937.960174 -686488.247410,-5402948.223600 -686532.496604,-5402954.730267 -686591.188185,-5402963.499092 -686663.876419,-5402976.006020 -686757.354420,-5402994.207622 -686818.268260,-5403006.217484 -686826.201581,-5403006.854251 -686840.672193,-5403008.026642 -686898.371129,-5403002.295544 -686971.234000,-5402997.925383 -686980.673575,-5402995.729232 -686988.516172,-5402990.554842 -686991.118976,-5402984.353155 -686991.207717,-5402976.422929 -686972.899969,-5402801.965970 -686974.003629,-5402794.758618 -686976.364926,-5402790.318174 -686980.280789,-5402786.762818 -686987.676038,-5402782.653141 -686998.593360,-5402782.107285 -687028.939762,-5402779.935118 -687040.028288,-5402775.033211"/>
    <poly id="10765121" type="unknown" color="51,128,255" fill="0" layer="-1.00" shape="-686384.905267,-5402919.993012 -686442.427028,-5402937.960174"/>
    <poly id="1083314116" type="unknown" color="51,128,255" fill="0" layer="-1.00" shape="-685954.682597,-5399447.662200 -685955.968162,-5399439.203622 -685970.093925,-5399417.825051 -685988.917323,-5399391.671301 -686007.772963,-5399364.528288 -686026.331675,-5399346.443653 -686034.189656,-5399341.582850 -686059.784264,-5399331.595082"/>
    <poly id="1083314117" type="unknown" color="51,128,255" fill="0" layer="-1.00" shape="-686120.311590,-5399171.185040 -686137.913544,-5399164.084058 -686192.590205,-5399134.185569 -686215.299012,-5399121.933019"/>
    <poly id="1083314118" type="unknown" color="51,128,255" fill="0" layer="-1.00" shape="-685712.826686,-5399563.036003 -685719.122010,-5399557.812789 -685724.358647,-5399548.738405 -685726.889059,-5399537.794966 -685733.624812,-5399518.922717 -685742.549628,-5399499.732853 -685751.953193,-5399483.896665 -685768.019887,-5399457.452867 -685789.620858,-5399430.801133 -685803.310330,-5399416.685431 -685817.496711,-5399401.106159 -685833.416514,-5399383.614294 -685852.605310,-5399364.516087 -685888.008585,-5399335.312410 -685897.834791,-5399327.667913 -685944.100944,-5399295.326271 -686022.176850,-5399238.045946 -686049.820758,-5399219.858341 -686120.311590,-5399171.185040 -686117.765954,-5399164.414614 -686074.262648,-5399124.603224 -686022.395796,-5399075.460409"/>
    <poly id="1083314119" type="unknown" color="51,128,255" fill="0" layer="-1.00" shape="-685525.396633,-5399554.356847 -685474.681186,-5399586.437836 -685444.411338,-5399598.183209 -685412.870956,-5399601.775348 -685397.832514,-5399600.902756"/>
    <poly id="1083477288" type="unknown" color="51,128,255" fill="0" layer="-1.00" shape="-682903.916645,-5399870.106425 -682877.793055,-5399879.784473 -682840.828949,-5399877.451282 -682695.829184,-5399856.628180 -682546.522911,-5399824.363668 -682461.446626,-5399797.544890 -682443.277557,-5399787.012905 -682424.246594,-5399769.008120 -682380.669978,-5399732.825236 -682338.669385,-5399690.908604 -682309.454361,-5399655.193837 -682266.959455,-5399595.067423 -682240.813255,-5399550.375183 -682235.003831,-5399533.913264 -682233.709496,-5399526.392637"/>
    <poly id="1083477291" type="unknown" color="51,128,255" fill="0" layer="-1.00" shape="-682587.345033,-5399506.816015 -682389.403987,-5399450.892005 -682372.591456,-5399453.112059 -682338.479346,-5399472.345778"/>
    <poly id="10880466" type="unknown" color="51,128,255" fill="0" layer="-1.00" shape="-686701.394697,-5402044.100051 -686690.418029,-5402099.340901 -686689.231031,-5402107.513503 -686689.543741,-5402114.633497 -686691.219896,-5402122.621314 -686693.833671,-5402130.083385 -686697.610053,-5402137.572243 -686701.634754,-5402142.866160"/>
    <poly id="10880953" type="unknown" color="51,128,255" fill="0" layer="-1.00" shape="-688027.060480,-5401486.099460 -688040.888817,-5401475.832592 -688097.690484,-5401458.144822 -688104.785174,-5401450.274522 -688109.051818,-5401441.745239"/>
    <poly id="10880954" type="unknown" color="51,128,255" fill="0" layer="-1.00" shape="-687815.775076,-5401332.464180 -687819.912923,-5401334.278404 -687822.316980,-5401336.203313 -687824.257260,-5401338.580491 -687825.662735,-5401341.329752 -687826.449833,-5401344.303746 -687826.592735,-5401347.390371 -687826.082136,-5401350.422432"/>
    <poly id="10880955" type="unknown" color="51,128,255" fill="0" layer="-1.00" shape="-687826.082136,-5401350.422432 -687831.013793,-5401350.916096 -687837.633466,-5401351.575738 -687895.286839,-5401357.349685 -688016.592725,-5401372.583723 -688054.107313,-5401377.292133 -688087.332290,-5401381.460882"/>
    <poly id="10880956" type="unknown" color="51,128,255" fill="0" layer="-1.00" shape="-686951.837324,-5401234.391992 -687018.310248,-5401244.445612"/>
    <poly id="10880957" type="unknown" color="51,128,255" fill="0" layer="-1.00" shape="-687198.733546,-5401267.396934 -687225.994955,-5401270.631380 -687261.438911,-5401275.366821 -687478.002494,-5401305.236538"/>
    <poly id="10881200" type="unknown" color="51,128,255" fill="0" layer="-1.00" shape="-687610.282155,-5399948.398491 -687555.591554,-5400050.832096"/>
    <poly id="10881201" type="unknown" color="51,128,255" fill="0" layer="-1.00" shape="-687555.591554,-5400050.832096 -687323.963594,-5400473.729138"/>
    <poly id="10881203" type="unknown" color="51,128,255" fill="0" layer="-1.00" shape="-687540.359370,-5400042.749139 -687595.493312,-5399940.496962"/>
    <poly id="109444372" type="unknown" color="51,128,255" fill="0" layer="-1.00" shape="-684857.671040,-5402803.569676 -684859.254952,-5402812.500893"/>
    <poly id="109447354" type="unknown" color="51,128,255" fill="0" layer="-1.00" shape="-686663.876419,-5402976.006020 -686686.053783,-5403769.630835"/>
    <poly id="109457854" type="unknown" color="51,128,255" fill="0" layer="-1.00" shape="-684859.810032,-5402830.533196 -684877.361766,-5402813.497719 -684882.823081,-5402808.904226 -684887.577779,-5402808.771494 -684893.534801,-5402809.924528 -684913.427015,-5402818.879931 -684973.004478,-5402844.518499 -685008.014901,-5402860.925229"/>
    <poly id="109586276" type="unknown" color="51,128,255" fill="0" layer="-1.00" shape="-689848.185608,-5401733.738806 -689935.784898,-5401796.370953 -689951.708672,-5401807.473116"/>
    <poly id="109586277" type="unknown" color="51,128,255" fill="0" layer="-1.00" shape="-689940.483111,-5401316.297385 -689939.071763,-5401329.325319 -689937.942698,-5401339.057848 -689934.678846,-5401353.606328 -689934.736130,-5401359.171209 -689936.531751,-5401365.170076 -689938.977357,-5401369.954773 -689946.405286,-5401379.627692"/>
    <poly id="109586278" type="unknown" color="51,128,255" fill="0" layer="-1.00" shape="-689958.304364,-5401384.637377 -689949.407971,-5401384.719510 -689923.691991,-5401385.152777 -689917.784632,-5401385.007983"/>
    <poly id="109586279" type="unknown" color="51,128,255" fill="0" layer="-1.00" shape="-689576.618824,-5401671.188152 -689579.173832,-5401659.487610 -689582.423211,-5401647.486701 -689584.260541,-5401639.334604 -689584.370692,-5401631.316205 -689582.125326,-5401622.821648 -689578.511934,-5401615.429163 -689573.569908,-5401607.682489 -689568.339465,-5401603.186505 -689565.760206,-5401597.295859"/>
    <poly id="109586280" type="unknown" color="51,128,255" fill="0" layer="-1.00" shape="-689951.708672,-5401807.473116 -689961.819392,-5401816.163811 -689969.044571,-5401824.372645 -689973.819920,-5401834.817224 -689976.033816,-5401845.235385 -689977.769525,-5401867.365112 -689979.672941,-5401882.190377 -689981.842283,-5401890.092614 -689987.096426,-5401900.074089 -689993.019242,-5401907.339960 -690002.068296,-5401913.782477 -690022.106667,-5401926.551576 -690036.944990,-5401940.756259"/>
    <poly id="109586286" type="unknown" color="51,128,255" fill="0" layer="-1.00" shape="-689766.258150,-5401751.216981 -689753.974843,-5401770.794416"/>
    <poly id="109586287" type="unknown" color="51,128,255" fill="0" layer="-1.00" shape="-689682.376232,-5401934.710697 -689688.301457,-5401903.102373 -689700.662545,-5401865.736910 -689708.203832,-5401846.408002 -689709.897946,-5401836.059436 -689709.714167,-5401827.786845 -689707.709456,-5401819.355707 -689704.642642,-5401812.359143 -689700.435975,-5401805.548533 -689693.051302,-5401798.880742"/>
    <poly id="109586288" type="unknown" color="51,128,255" fill="0" layer="-1.00" shape="-689848.185608,-5401733.738806 -689824.287869,-5401720.811919 -689817.475102,-5401717.433699 -689811.970915,-5401715.955481 -689806.493957,-5401715.924524 -689801.362768,-5401717.050636 -689796.007425,-5401719.426805 -689791.429638,-5401723.730463 -689779.251159,-5401739.584064 -689766.258150,-5401751.216981"/>
    <poly id="109586290" type="unknown" color="51,128,255" fill="0" layer="-1.00" shape="-689874.039585,-5401825.311838 -689891.127572,-5401833.859108 -689917.832741,-5401854.552619 -689924.619874,-5401857.818622 -689931.450580,-5401859.494983 -689940.043202,-5401858.346127 -689946.683334,-5401854.709224 -689952.695535,-5401849.527927 -689956.656642,-5401842.867908 -689958.901214,-5401834.628630 -689958.677809,-5401825.742864 -689956.741994,-5401818.827189 -689951.708672,-5401807.473116"/>
    <poly id="109776206" type="unknown" color="51,128,255" fill="0" layer="-1.00" shape="-689475.853828,-5401334.413021 -689484.672145,-5401334.240124 -689541.521663,-5401338.680637 -689603.940487,-5401344.623365 -689617.340210,-5401345.075750"/>
    <poly id="109776207" type="unknown" color="51,128,255" fill="0" layer="-1.00" shape="-689670.252628,-5401351.758434 -689729.393126,-5401362.590176 -689766.239593,-5401372.072122 -689800.293343,-5401381.631160 -689884.453181,-5401411.254341"/>
    <poly id="1109085010" type="unknown" color="51,128,255" fill="0" layer="-1.00" shape="-685787.380733,-5400155.558441 -685776.100334,-5400144.874152 -685763.694138,-5400135.298951 -685754.763925,-5400127.250811 -685752.113419,-5400121.878743 -685752.129770,-5400110.608043 -685760.901166,-5400101.727437 -685778.554755,-5400080.809871 -685781.620811,-5400073.511245 -685789.656189,-5400054.748304 -685797.763514,-5400044.788844"/>
    <poly id="1109085255" type="unknown" color="51,128,255" fill="0" layer="-1.00" shape="-685987.785442,-5399937.092200 -685987.908632,-5399929.062854 -685988.297153,-5399917.203535 -685988.766147,-5399902.887880 -685984.901444,-5399883.122875 -685981.970493,-5399872.378724 -685953.934219,-5399850.998349 -685941.513317,-5399829.306194 -685918.158867,-5399802.760536 -685902.953327,-5399790.801783 -685872.862699,-5399782.037928 -685861.134177,-5399776.735470 -685845.319589,-5399758.214149 -685834.872637,-5399751.318043 -685818.820527,-5399752.838965 -685799.631297,-5399762.034444 -685786.178446,-5399771.829693 -685777.246711,-5399781.350395 -685764.332351,-5399787.068671 -685752.422393,-5399786.177289"/>
    <poly id="1112136865" type="unknown" color="51,128,255" fill="0" layer="-1.00" shape="-686963.307848,-5401928.431222 -686920.015382,-5401936.879189"/>
    <poly id="1112520397" type="unknown" color="51,128,255" fill="0" layer="-1.00" shape="-688359.177915,-5401399.778391 -688360.782254,-5401410.733988 -688363.672088,-5401422.009291 -688367.676995,-5401429.537701"/>
    <poly id="1112520398" type="unknown" color="51,128,255" fill="0" layer="-1.00" shape="-688096.388599,-5401382.588513 -688103.574809,-5401383.488702"/>
    <poly id="113212955" type="unknown" color="51,128,255" fill="0" layer="-1.00" shape="-689347.896162,-5401778.518029 -689369.898388,-5401777.778796"/>
    <poly id="113212957" type="unknown" color="51,128,255" fill="0" layer="-1.00" shape="-689320.693648,-5401770.845526 -689347.896162,-5401778.518029"/>
    <poly id="113212961" type="unknown" color="51,128,255" fill="0" layer="-1.00" shape="-689634.875692,-5402503.176995 -689633.625940,-5402521.472710 -689633.105151,-5402528.064903 -689632.325238,-5402534.470766 -689630.711561,-5402548.960804 -689628.745567,-5402562.037649 -689626.509387,-5402575.272716 -689624.820498,-5402585.220891 -689622.861068,-5402595.338402"/>
    <poly id="114374865" type="unknown" color="51,128,255" fill="0" layer="-1.00" shape="-684723.775983,-5404570.062332 -684742.456517,-5404568.352138 -684788.030770,-5404548.857018 -684814.585075,-5404527.055282 -684866.180756,-5404521.565907 -684930.683201,-5404506.230890 -685008.135613,-5404482.186143 -685087.740812,-5404403.390503"/>
    <poly id="114374866" type="unknown" color="51,128,255" fill="0" layer="-1.00" shape="-685004.762681,-5404352.684156 -684971.179786,-5404362.906377 -684941.854048,-5404377.630095 -684880.190782,-5404383.968169 -684821.230930,-5404369.721342 -684774.842614,-5404366.780842"/>
    <poly id="114374867" type="unknown" color="51,128,255" fill="0" layer="-1.00" shape="-685087.740812,-5404403.390503 -685046.102143,-5404377.876802 -685004.762681,-5404352.684156"/>
    <poly id="115750415" type="unknown" color="51,128,255" fill="0" layer="-1.00" shape="-689165.084158,-5401512.742780 -689166.779298,-5401506.511038 -689175.855250,-5401402.695472 -689168.537742,-5401394.204389 -689093.406713,-5401359.798504 -689052.046012,-5401347.173776 -689022.146646,-5401338.044319 -689012.792764,-5401335.184044 -688933.634392,-5401318.882055 -688871.479226,-5401311.393779 -688816.941369,-5401308.333865 -688787.584012,-5401308.210587 -688756.705840,-5401308.672300 -688722.303686,-5401311.334420 -688685.237456,-5401315.100881 -688641.422533,-5401321.976047 -688605.141855,-5401329.227599 -688516.804251,-5401354.613821 -688385.215938,-5401395.101324 -688378.266605,-5401400.083822 -688374.842875,-5401407.149609 -688372.717509,-5401424.159733 -688367.676995,-5401429.537701"/>
    <poly id="115750416" type="unknown" color="51,128,255" fill="0" layer="-1.00" shape="-687673.267565,-5401840.977905 -687675.899031,-5401830.904927 -687565.714419,-5401727.726367 -687563.076032,-5401716.458740 -687567.230691,-5401707.781536 -687688.632722,-5401636.751772 -687777.520220,-5401589.922134 -687869.222148,-5401551.393607 -687970.469799,-5401516.577505 -688132.512141,-5401467.138136 -688261.623346,-5401431.883482 -688273.659258,-5401432.628749 -688284.570085,-5401439.023135 -688290.362662,-5401447.276987 -688294.684837,-5401454.782333 -688296.220826,-5401460.562028"/>
    <poly id="115750417" type="unknown" color="51,128,255" fill="0" layer="-1.00" shape="-689193.349988,-5401408.142764 -689339.163841,-5401483.961775 -689353.987554,-5401495.097149"/>
    <poly id="1157655576" type="unknown" color="51,128,255" fill="0" layer="-1.00" shape="-681813.804911,-5399194.570774 -681827.631454,-5399201.932909 -681829.317754,-5399211.135865"/>
    <poly id="1157655580" type="unknown" color="51,128,255" fill="0" layer="-1.00" shape="-682359.685513,-5398695.732924 -682342.153473,-5398698.407172"/>
    <poly id="115895502" type="unknown" color="51,128,255" fill="0" layer="-1.00" shape="-684493.155379,-5401916.083356 -684482.464759,-5401913.360496 -684475.736100,-5401912.860221 -684467.645257,-5401913.472147 -684457.313343,-5401916.836259"/>
    <poly id="115895506" type="unknown" color="51,128,255" fill="0" layer="-1.00" shape="-684349.081778,-5402002.197966 -684352.112657,-5401932.511341 -684353.113895,-5401909.556624"/>
    <poly id="115895508" type="unknown" color="51,128,255" fill="0" layer="-1.00" shape="-684381.731788,-5402004.021840 -684384.391875,-5401933.955794 -684386.139207,-5401887.960050 -684386.204193,-5401886.215303"/>
    <poly id="115895521" type="unknown" color="51,128,255" fill="0" layer="-1.00" shape="-684477.895532,-5402005.160702 -684480.479690,-5401929.773612"/>
    <poly id="115895524" type="unknown" color="51,128,255" fill="0" layer="-1.00" shape="-684511.328146,-5401968.544672 -684511.962969,-5401951.986849"/>
    <poly id="115895528" type="unknown" color="51,128,255" fill="0" layer="-1.00" shape="-684495.820592,-5402005.785733 -684477.895532,-5402005.160702 -684469.321935,-5402004.777553 -684463.586376,-5402001.851051 -684460.380192,-5401995.247218 -684462.319697,-5401936.495511 -684465.270308,-5401930.094923 -684470.513230,-5401927.197028 -684477.707133,-5401927.434499 -684480.479690,-5401929.773612 -684496.789831,-5401942.284292 -684511.962969,-5401951.986849 -684544.155022,-5401968.125857 -684560.263012,-5401975.611530 -684559.884492,-5402005.385185 -684543.752102,-5402005.331338 -684526.919071,-5402005.309958 -684526.787351,-5401988.548814"/>
    <poly id="115895531" type="unknown" color="51,128,255" fill="0" layer="-1.00" shape="-684455.358644,-5402021.996932 -684453.283351,-5402019.280267 -684449.418232,-5402014.568467 -684448.100247,-5402012.110461 -684447.331330,-5402009.080867 -684446.566263,-5402003.481132"/>
    <poly id="1164664520" type="unknown" color="51,128,255" fill="0" layer="-1.00" shape="-690821.820521,-5402648.721293 -690818.180440,-5402731.048666 -690817.246374,-5402752.269484 -690810.310514,-5402752.003925 -690721.536169,-5402748.550749 -690693.344697,-5402747.451444 -690661.791971,-5402746.222527 -690649.795838,-5402745.761973 -690602.930224,-5402743.932951"/>
    <poly id="1167971349" type="unknown" color="51,128,255" fill="0" layer="-1.00" shape="-687191.541115,-5401416.746274 -687190.939002,-5401427.786327 -687188.384831,-5401432.064785 -687182.342534,-5401442.171264"/>
    <poly id="1167971350" type="unknown" color="51,128,255" fill="0" layer="-1.00" shape="-687188.384831,-5401432.064785 -687174.006631,-5401427.725040 -687155.037283,-5401426.907587 -687147.639275,-5401430.027046 -687134.126823,-5401425.782124"/>
    <poly id="1176325461" type="unknown" color="51,128,255" fill="0" layer="-1.00" shape="-688073.009659,-5400041.088691 -688055.917845,-5400039.722878 -687990.323882,-5400035.450473 -687939.667817,-5400033.819987 -687891.114693,-5400033.848289 -687863.254995,-5400036.082634"/>
    <poly id="1177241300" type="unknown" color="51,128,255" fill="0" layer="-1.00" shape="-687797.534041,-5401345.302251 -687798.387582,-5401341.457963 -687800.252634,-5401337.980261 -687802.988160,-5401335.131603 -687806.388732,-5401333.116728 -687811.025865,-5401332.020922 -687815.775076,-5401332.464180"/>
    <poly id="1178361853" type="unknown" color="51,128,255" fill="0" layer="-1.00" shape="-688367.676995,-5401429.537701 -688374.189387,-5401437.848104 -688383.644693,-5401445.997703 -688504.058105,-5401492.812985"/>
    <poly id="1178438383" type="unknown" color="51,128,255" fill="0" layer="-1.00" shape="-687781.779669,-5402006.095725 -687771.270991,-5402043.829295 -687765.727174,-5402061.062247 -687757.041928,-5402072.530043"/>
    <poly id="1178438900" type="unknown" color="51,128,255" fill="0" layer="-1.00" shape="-688862.777962,-5401739.895070 -688857.527325,-5401788.580997 -688857.159599,-5401792.908364 -688852.999138,-5401841.807443 -688852.713200,-5401852.735283 -688853.871903,-5401862.018501 -688858.370322,-5401870.485880"/>
    <poly id="1178695615" type="unknown" color="51,128,255" fill="0" layer="-1.00" shape="-688113.312757,-5401789.201407 -688120.878108,-5401766.570594 -688122.801736,-5401760.824924"/>
    <poly id="1180419643" type="unknown" color="51,128,255" fill="0" layer="-1.00" shape="-682272.209602,-5398792.072867 -682275.996001,-5398762.034112 -682279.892332,-5398748.077576 -682285.589890,-5398735.939331 -682294.907305,-5398724.055626 -682304.696718,-5398716.104399 -682316.717481,-5398708.772971 -682329.905601,-5398702.626622 -682342.153473,-5398698.407172"/>
    <poly id="1181135644" type="unknown" color="51,128,255" fill="0" layer="-1.00" shape="-683877.989462,-5401872.412105 -683865.679461,-5401856.115394 -683859.185497,-5401844.528755 -683872.423419,-5401832.805626 -683875.828424,-5401829.825150"/>
    <poly id="1181135647" type="unknown" color="51,128,255" fill="0" layer="-1.00" shape="-686904.173953,-5400745.879355 -686885.837267,-5400785.804271"/>
    <poly id="1181135648" type="unknown" color="51,128,255" fill="0" layer="-1.00" shape="-686840.536952,-5400738.898365 -686904.173953,-5400745.879355"/>
    <poly id="1181135649" type="unknown" color="51,128,255" fill="0" layer="-1.00" shape="-686956.467167,-5400634.883575 -686946.303711,-5400647.214324 -686934.464957,-5400675.712824 -686904.173953,-5400745.879355"/>