<?xml version="1.0" encoding="UTF-8"?>
<!-- generated on 2025-12-17 17:26:10.882345 by randomTrips.py v1_5_0+0000-3a3be608d2
  options: -n unterschleissheim.net.xml -r unterschleissheim.trips.xml -e 3600 -p 2
-->
<routes xmlns:xsi="http://www.w3.org/2001/XMLSchema-instance" xsi:noNamespaceSchemaLocation="http://sumo.dlr.de/xsd/routes_file.xsd">
    <trip id="0" depart="0.00" from="-32447239#1" to="5946530#2"/>
    <trip id="1" depart="2.00" from="-5819069#1" to="437797568"/>
    <trip id="2" depart="4.00" from="5082486#1" to="5887462#0"/>
    <trip id="3" depart="6.00" from="-1281826320#2" to="-5087938#1"/>
    <trip id="4" depart="8.00" from="-27843424#5" to="331141419#0"/>
    <trip id="5" depart="10.00" from="-31677857" to="-5848764#1"/>
    <trip id="6" depart="12.00" from="507954753" to="-5886675#5"/>
    <trip id="7" depart="14.00" from="-4800988#0" to="228379950#0"/>
    <trip id="8" depart="16.00" from="5079228#0" to="1272517144#2"/>
    <trip id="9" depart="18.00" from="430493149#3" to="5069386#5"/>
    <trip id="10" depart="20.00" from="4800988#7" to="82660057#0"/>
    <trip id="11" depart="22.00" from="396296910#1" to="-245444349"/>
    <trip id="12" depart="24.00" from="-1008958790#0" to="8113582#6"/>
    <trip id="13" depart="26.00" from="-1363394305#0" to="4801764"/>
    <trip id="14" depart="28.00" from="-24504943#3" to="-4794781#2"/>
    <trip id="15" depart="30.00" from="-25786848" to="-9571304"/>
    <trip id="16" depart="32.00" from="75003616#8" to="-5819069#4"/>
    <trip id="17" depart="34.00" from="-1281928607#8" to="5076952#0"/>
    <trip id="18" depart="36.00" from="-1281928605#4" to="-5886673#14"/>
    <trip id="19" depart="38.00" from="6203903" to="14988710#1"/>
    <trip id="20" depart="40.00" from="-331257524#4" to="-8113581#1"/>
    <trip id="21" depart="42.00" from="430493149#5" to="-75124764#5"/>
    <trip id="22" depart="44.00" from="5082496#3" to="-1386298127"/>
    <trip id="23" depart="46.00" from="441853972#1" to="-8600209#0"/>
    <trip id="24" depart="48.00" from="-4800984#2" to="-5082361#1"/>
    <trip id="25" depart="50.00" from="-5887463#1" to="-1008958788"/>
    <trip id="26" depart="52.00" from="-75467950#1" to="-334964141#5"/>
    <trip id="27" depart="54.00" from="24504943#3" to="-28286538#2"/>
    <trip id="28" depart="56.00" from="1316184508" to="4800984#5"/>
    <trip id="29" depart="58.00" from="5946404#0" to="31678215"/>
    <trip id="30" depart="60.00" from="-1386298121" to="-5079228#0"/>
    <trip id="31" depart="62.00" from="5946598#3" to="-8600207#3"/>
    <trip id="32" depart="64.00" from="9793954#1" to="4800988#8"/>
    <trip id="33" depart="66.00" from="1008958790#6" to="1281928607#3"/>
    <trip id="34" depart="68.00" from="-1360948905" to="-664155785#1"/>
    <trip id="35" depart="70.00" from="-27843424#7" to="5069375#1"/>
    <trip id="36" depart="72.00" from="5945812#11" to="-31406357#0"/>
    <trip id="37" depart="74.00" from="-1272517144#0" to="32113601"/>
    <trip id="38" depart="76.00" from="8609620#2" to="1448502138"/>
    <trip id="39" depart="78.00" from="27002948#0" to="88369410#2"/>
    <trip id="40" depart="80.00" from="-31530615#8" to="-1281928605#7"/>
    <trip id="41" depart="82.00" from="9355858#2" to="-1010751689"/>
    <trip id="42" depart="84.00" from="-1281928608#1" to="-4800987#4"/>
    <trip id="43" depart="86.00" from="-1386298114#0" to="302581369#3"/>
    <trip id="44" depart="88.00" from="-4800984#2" to="-507939652"/>
    <trip id="45" depart="90.00" from="5818941#5" to="-5079219#13"/>
    <trip id="46" depart="92.00" from="430493149#7" to="-65071854"/>
    <trip id="47" depart="94.00" from="-396296910#7" to="5944235#0"/>
    <trip id="48" depart="96.00" from="-1281928607#0" to="-5069391#4"/>
    <trip id="49" depart="98.00" from="1272517144#0" to="148382599"/>
    <trip id="50" depart="100.00" from="-4794780" to="8113580#4"/>
    <trip id="51" depart="102.00" from="-5946552#0" to="5068588#1"/>
    <trip id="52" depart="104.00" from="8600205#1" to="-74990158#8"/>
    <trip id="53" depart="106.00" from="1009649604#4" to="457985045#2"/>
    <trip id="54" depart="108.00" from="-5098108#2" to="-1386298115#3"/>
    <trip id="55" depart="110.00" from="5069407#0" to="5819069#4"/>
    <trip id="56" depart="112.00" from="-453824292" to="-1281826320#2"/>
    <trip id="57" depart="114.00" from="-79397801#3" to="-430493149#2"/>
    <trip id="58" depart="116.00" from="-457402617#2" to="-30344489#4"/>
    <trip id="59" depart="118.00" from="-33703769#2" to="-5079219#13"/>
    <trip id="60" depart="120.00" from="6203238#9" to="1305790148#0"/>
    <trip id="61" depart="122.00" from="25786839" to="441849942#1"/>
    <trip id="62" depart="124.00" from="704908829" to="-75124764#14"/>
    <trip id="63" depart="126.00" from="-75124764#1" to="14988710#6"/>
    <trip id="64" depart="128.00" from="138154094" to="5069375#3"/>
    <trip id="65" depart="130.00" from="31530615#10" to="1283283786"/>
    <trip id="66" depart="132.00" from="306652090#1" to="-441849942#2"/>
    <trip id="67" depart="134.00" from="4800988#12" to="4800988#6"/>
    <trip id="68" depart="136.00" from="-5886673#13" to="1303311912#0"/>
    <trip id="69" depart="138.00" from="9355858#3" to="30345114#0"/>
    <trip id="70" depart="140.00" from="33703769#3" to="24504943#2"/>
    <trip id="71" depart="142.00" from="315044279#2" to="134430199#1"/>
    <trip id="72" depart="144.00" from="-1386298124#1" to="5887460#2"/>
    <trip id="73" depart="146.00" from="-1281140116#1" to="75003616#6"/>
    <trip id="74" depart="148.00" from="5080903#0" to="1281928607#10"/>
    <trip id="75" depart="150.00" from="-971415144#0" to="1316184510"/>
    <trip id="76" depart="152.00" from="75003616#9" to="30344489#7"/>
    <trip id="77" depart="154.00" from="-8113582#1" to="5886678#4"/>
    <trip id="78" depart="156.00" from="-245444351#1" to="-430493150"/>
    <trip id="79" depart="158.00" from="-33703769#2" to="23938055#4"/>
    <trip id="80" depart="160.00" from="1241592231#0" to="75003620#2"/>
    <trip id="81" depart="162.00" from="-6203238#9" to="-1319268816#1"/>
    <trip id="82" depart="164.00" from="-40889665#2" to="5848764#1"/>
    <trip id="83" depart="166.00" from="441853976#1" to="23686343#1"/>
    <trip id="84" depart="168.00" from="40191446#2" to="4800983#3"/>
    <trip id="85" depart="170.00" from="31406358#3" to="-31468463#0"/>
    <trip id="86" depart="172.00" from="1386298128" to="33703772#1"/>
    <trip id="87" depart="174.00" from="-477784050" to="-453617458"/>
    <trip id="88" depart="176.00" from="1231442031#3" to="-5945176"/>
    <trip id="89" depart="178.00" from="477784054" to="-9793954#2"/>
    <trip id="90" depart="180.00" from="40191446#0" to="4963416#2"/>
    <trip id="91" depart="182.00" from="-75003622#3" to="441853975#0"/>
    <trip id="92" depart="184.00" from="1008958790#5" to="40191446#2"/>
    <trip id="93" depart="186.00" from="5087941#2" to="-31406358#3"/>
    <trip id="94" depart="188.00" from="1360948904#3" to="-885485330#5"/>
    <trip id="95" depart="190.00" from="5886678#0" to="441849945#4"/>
    <trip id="96" depart="192.00" from="32447239#2" to="-362217303"/>
    <trip id="97" depart="194.00" from="-8600205#2" to="-5082486#5"/>
    <trip id="98" depart="196.00" from="148382589" to="228379950#1"/>
    <trip id="99" depart="198.00" from="-5945853#1" to="-245444350#3"/>
    <trip id="100" depart="200.00" from="-482638900#3" to="5079219#16"/>
    <trip id="101" depart="202.00" from="1281928607#10" to="-531130577#0"/>
    <trip id="102" depart="204.00" from="-681333713" to="-396296910#6"/>
    <trip id="103" depart="206.00" from="5886673#0" to="1375006809#0"/>
    <trip id="104" depart="208.00" from="4801764" to="302581372#0"/>
    <trip id="105" depart="210.00" from="75003622#1" to="5886678#6"/>
    <trip id="106" depart="212.00" from="-4800989#2" to="-315884221#1"/>
    <trip id="107" depart="214.00" from="-507939652" to="-5944102#8"/>
    <trip id="108" depart="216.00" from="5069391#3" to="-31678217#1"/>
    <trip id="109" depart="218.00" from="25786841#2" to="-5079219#7"/>
    <trip id="110" depart="220.00" from="-75003619#0" to="5887457#2"/>
    <trip id="111" depart="222.00" from="43153854" to="5944692#0"/>
    <trip id="112" depart="224.00" from="334964141#4" to="1421714615#0"/>
    <trip id="113" depart="226.00" from="-31671109#0" to="30074868"/>
    <trip id="114" depart="228.00" from="1281826321#1" to="653960282"/>
    <trip id="115" depart="230.00" from="1360948904#2" to="-5944102#10"/>
    <trip id="116" depart="232.00" from="-5079219#14" to="-315044279#2"/>
    <trip id="117" depart="234.00" from="-441849942#0" to="506465951"/>
    <trip id="118" depart="236.00" from="-430493149#7" to="-1008958790#6"/>
    <trip id="119" depart="238.00" from="-5886676#6" to="664155785#0"/>
    <trip id="120" depart="240.00" from="-1281140116#1" to="4800984#5"/>
    <trip id="121" depart="242.00" from="-457402617#6" to="1281928607#9"/>
    <trip id="122" depart="244.00" from="430493149#9" to="-24495708#4"/>
    <trip id="123" depart="246.00" from="5886675#7" to="-1281928608#0"/>
    <trip id="124" depart="248.00" from="1281928608#0" to="-175650939#2"/>
    <trip id="125" depart="250.00" from="-5944746#0" to="1272359729"/>
    <trip id="126" depart="252.00" from="-453617458" to="24537723#2"/>
    <trip id="127" depart="254.00" from="453824297#0" to="-531130577#0"/>
    <trip id="128" depart="256.00" from="-5945804#0" to="4963285#0"/>
    <trip id="129" depart="258.00" from="1386298118" to="1281928607#5"/>
    <trip id="130" depart="260.00" from="-4800991" to="5886673#15"/>
    <trip id="131" depart="262.00" from="366288209#1" to="32113042"/>
    <trip id="132" depart="264.00" from="316937466" to="1272517144#0"/>
    <trip id="133" depart="266.00" from="704908830#2" to="8113580#5"/>
    <trip id="134" depart="268.00" from="-1241592231#1" to="5068588#0"/>
    <trip id="135" depart="270.00" from="6203238#4" to="-1416347753#0"/>
    <trip id="136" depart="272.00" from="5945882#0" to="1414984822"/>
    <trip id="137" depart="274.00" from="-4963416#1" to="-4809510"/>
    <trip id="138" depart="276.00" from="-5082486#1" to="-1448502136"/>
    <trip id="139" depart="278.00" from="31406357#1" to="-8163545"/>
    <trip id="140" depart="280.00" from="-26570469" to="-75467950#0"/>
    <trip id="141" depart="282.00" from="-453617470" to="4794780"/>
    <trip id="142" depart="284.00" from="-1281928604#0" to="5016291"/>
    <trip id="143" depart="286.00" from="-5887460#1" to="1386298115#0"/>
    <trip id="144" depart="288.00" from="453617458" to="-4800988#1"/>
    <trip id="145" depart="290.00" from="27688236#2" to="1386298115#4"/>
    <trip id="146" depart="292.00" from="-5087870#2" to="-5946598#0"/>
    <trip id="147" depart="294.00" from="6203238#7" to="331141419#2"/>
    <trip id="148" depart="296.00" from="-5945572#2" to="-245444350#4"/>
    <trip id="149" depart="298.00" from="148382609" to="228366594#0"/>
    <trip id="150" depart="300.00" from="-5886673#22" to="-31468463#2"/>
    <trip id="151" depart="302.00" from="-232692592" to="1342442210"/>
    <trip id="152" depart="304.00" from="-5087870#0" to="5819069#2"/>
    <trip id="153" depart="306.00" from="-73903622#3" to="-5887460#2"/>
    <trip id="154" depart="308.00" from="-1009649604#0" to="704908830#0"/>
    <trip id="155" depart="310.00" from="477784053" to="441853978#2"/>
    <trip id="156" depart="312.00" from="9793954#1" to="-175650939#0"/>
    <trip id="157" depart="314.00" from="5080916#3" to="-82660057#2"/>
    <trip id="158" depart="316.00" from="-5069387#5" to="-75003619#2"/>
    <trip id="159" depart="318.00" from="10491538#1" to="5069375#1"/>
    <trip id="160" depart="320.00" from="396296910#4" to="4800984#4"/>
    <trip id="161" depart="322.00" from="-8113580#1" to="453824297#4"/>
    <trip id="162" depart="324.00" from="1386298115#6" to="-6203238#8"/>
    <trip id="163" depart="326.00" from="-40889665#2" to="453824296#1"/>
    <trip id="164" depart="328.00" from="-1356958114" to="-545728581#2"/>
    <trip id="165" depart="330.00" from="270339747#1" to="-4800985#0"/>
    <trip id="166" depart="332.00" from="611155026" to="1360948904#0"/>
    <trip id="167" depart="334.00" from="-24340771#3" to="-31406357#2"/>
    <trip id="168" depart="336.00" from="5946598#3" to="6203238#10"/>
    <trip id="169" depart="338.00" from="-5886676#5" to="-1346625473"/>
    <trip id="170" depart="340.00" from="5087936" to="93044030"/>
    <trip id="171" depart="342.00" from="315887094" to="-175650939#3"/>
    <trip id="172" depart="344.00" from="74990158#9" to="-1281928605#17"/>
    <trip id="173" depart="346.00" from="-75124764#6" to="442679255"/>
    <trip id="174" depart="348.00" from="26649209" to="-331257524#2"/>
    <trip id="175" depart="350.00" from="-31530615#7" to="-315887092#0"/>
    <trip id="176" depart="352.00" from="-5887460#2" to="-5945882#1"/>
    <trip id="177" depart="354.00" from="28423278" to="25786841#2"/>
    <trip id="178" depart="356.00" from="975292135" to="-40191446#3"/>
    <trip id="179" depart="358.00" from="75003616#0" to="1008958790#4"/>
    <trip id="180" depart="360.00" from="5945572#1" to="-5886673#10"/>
    <trip id="181" depart="362.00" from="-1228925746#1" to="938386627"/>
    <trip id="182" depart="364.00" from="8494410#2" to="673356629"/>
    <trip id="183" depart="366.00" from="-5887460#3" to="-4800989#2"/>
    <trip id="184" depart="368.00" from="5945812#9" to="-441849944#2"/>
    <trip id="185" depart="370.00" from="-1272359733" to="-5069391#3"/>
    <trip id="186" depart="372.00" from="-987803553#1" to="6203238#3"/>
    <trip id="187" depart="374.00" from="-25786846#0" to="31406357#0"/>
    <trip id="188" depart="376.00" from="1281826321#0" to="4800988#6"/>
    <trip id="189" depart="378.00" from="-442679254#1" to="15412681#0"/>
    <trip id="190" depart="380.00" from="-31468463#0" to="148382577"/>
    <trip id="191" depart="382.00" from="5098108#2" to="885485330#7"/>
    <trip id="192" depart="384.00" from="-75124764#4" to="-245444351#0"/>
    <trip id="193" depart="386.00" from="-453617472" to="1281928605#9"/>
    <trip id="194" depart="388.00" from="-5016290#0" to="-24537723#3"/>
    <trip id="195" depart="390.00" from="-23648989" to="-1231442031#4"/>
    <trip id="196" depart="392.00" from="681333712" to="-245444350#0"/>
    <trip id="197" depart="394.00" from="-1315354752#1" to="5945554#2"/>
    <trip id="198" depart="396.00" from="1315354752#0" to="-1386298115#6"/>
    <trip id="199" depart="398.00" from="-5944692#0" to="455585138"/>
    <trip id="200" depart="400.00" from="-453617470" to="331141419#0"/>
    <trip id="201" depart="402.00" from="-5818941#7" to="-5945572#1"/>
    <trip id="202" depart="404.00" from="457985045#3" to="-680724682#4"/>
    <trip id="203" depart="406.00" from="1281928607#6" to="-75124764#14"/>
    <trip id="204" depart="408.00" from="5082496#2" to="33703770#5"/>
    <trip id="205" depart="410.00" from="-5848764#1" to="75124764#5"/>
    <trip id="206" depart="412.00" from="75003617#1" to="-30344489#1"/>
    <trip id="207" depart="414.00" from="443109740#0" to="441853974"/>
    <trip id="208" depart="416.00" from="-5945572#1" to="228393096"/>
    <trip id="209" depart="418.00" from="30074868" to="-32113602#0"/>
    <trip id="210" depart="420.00" from="-175650939#2" to="4800988#14"/>
    <trip id="211" depart="422.00" from="430493149#0" to="5944102#1"/>
    <trip id="212" depart="424.00" from="31468934#2" to="1281928604#2"/>
    <trip id="213" depart="426.00" from="-5080916#0" to="-1347704804"/>
    <trip id="214" depart="428.00" from="28908536#2" to="245444350#5"/>
    <trip id="215" depart="430.00" from="148382603#0" to="-6203238#2"/>
    <trip id="216" depart="432.00" from="453824297#0" to="5945812#4"/>
    <trip id="217" depart="434.00" from="-4800983#8" to="9355862"/>
    <trip id="218" depart="436.00" from="-9355860#1" to="-5945812#1"/>
    <trip id="219" depart="438.00" from="5111067#0" to="75003617#0"/>
    <trip id="220" depart="440.00" from="-31406358#1" to="-31468463#0"/>
    <trip id="221" depart="442.00" from="-4800983#0" to="-971415142#1"/>
    <trip id="222" depart="444.00" from="-4800992#2" to="-659662360#1"/>
    <trip id="223" depart="446.00" from="-24881575" to="31677854"/>
    <trip id="224" depart="448.00" from="-394199648#1" to="-1281928607#9"/>
    <trip id="225" depart="450.00" from="443109739#1" to="-443109739#2"/>
    <trip id="226" depart="452.00" from="1281928607#9" to="1008958790#1"/>
    <trip id="227" depart="454.00" from="5945418#2" to="4794924"/>
    <trip id="228" depart="456.00" from="-441853978#0" to="24508307#0"/>
    <trip id="229" depart="458.00" from="8113582#5" to="-82660057#2"/>
    <trip id="230" depart="460.00" from="75003620#1" to="-82660057#1"/>
    <trip id="231" depart="462.00" from="-441853971#1" to="5079191#3"/>
    <trip id="232" depart="464.00" from="-453824297#1" to="5886673#2"/>
    <trip id="233" depart="466.00" from="441854001" to="-27843424#5"/>
    <trip id="234" depart="468.00" from="-5819069#7" to="-5887462#0"/>
    <trip id="235" depart="470.00" from="31468934#2" to="-134430199#0"/>
    <trip id="236" depart="472.00" from="-6203238#8" to="-5946552#0"/>
    <trip id="237" depart="474.00" from="-681333713" to="-441849938#1"/>
    <trip id="238" depart="476.00" from="-27843424#9" to="-72612951#2"/>
    <trip id="239" depart="478.00" from="-5945853#1" to="680724682#1"/>
    <trip id="240" depart="480.00" from="-331257524#1" to="-5945978#1"/>
    <trip id="241" depart="482.00" from="1009649604#4" to="1348726858#0"/>
    <trip id="242" depart="484.00" from="-531130577#0" to="-8600209#0"/>
    <trip id="243" depart="486.00" from="30090533" to="531130577#2"/>
    <trip id="244" depart="488.00" from="-75003619#2" to="-5886673#12"/>
    <trip id="245" depart="490.00" from="5886673#6" to="-4800988#3"/>
    <trip id="246" depart="492.00" from="-1339824415" to="475949445"/>
    <trip id="247" depart="494.00" from="-971415142#2" to="5069386#4"/>
    <trip id="248" depart="496.00" from="1386298115#6" to="-545728581#2"/>
    <trip id="249" depart="498.00" from="-5069391#3" to="396296910#9"/>
    <trip id="250" depart="500.00" from="-680724682#4" to="232692592"/>
    <trip id="251" depart="502.00" from="5945812#2" to="5819069#2"/>
    <trip id="252" depart="504.00" from="-1281928606#2" to="-5945812#1"/>
    <trip id="253" depart="506.00" from="-8600205#2" to="-5068590#0"/>
    <trip id="254" depart="508.00" from="28286538#1" to="-453824291#0"/>
    <trip id="255" depart="510.00" from="1241592231#0" to="-441849938#1"/>
    <trip id="256" depart="512.00" from="-24537727#1" to="5944746#0"/>
    <trip id="257" depart="514.00" from="-82660057#0" to="30090533"/>
    <trip id="258" depart="516.00" from="5571784#1" to="1393240305"/>
    <trip id="259" depart="518.00" from="-5069375#1" to="-1386298115#6"/>
    <trip id="260" depart="520.00" from="-79397801#2" to="-82660057#2"/>
    <trip id="261" depart="522.00" from="-8163545" to="-5069391#2"/>
    <trip id="262" depart="524.00" from="5886673#1" to="1272517144#0"/>
    <trip id="263" depart="526.00" from="-27688236#1" to="-302581369#0"/>
    <trip id="264" depart="528.00" from="24504943#0" to="-5087870#1"/>
    <trip id="265" depart="530.00" from="24340771#0" to="-5818941#0"/>
    <trip id="266" depart="532.00" from="457985045#0" to="8600144"/>
    <trip id="267" depart="534.00" from="-1316776513" to="5087941#4"/>
    <trip id="268" depart="536.00" from="-8494410#4" to="4963274#0"/>
    <trip id="269" depart="538.00" from="653960282" to="-5886676#4"/>
    <trip id="270" depart="540.00" from="5069387#5" to="1416532469#1"/>
    <trip id="271" depart="542.00" from="1360948904#3" to="5945882#1"/>
    <trip id="272" depart="544.00" from="24167319#0" to="5886676#4"/>
    <trip id="273" depart="546.00" from="1360948904#2" to="-25786839"/>
    <trip id="274" depart="548.00" from="-5945572#2" to="5082496#0"/>
    <trip id="275" depart="550.00" from="4794780" to="744557380#3"/>
    <trip id="276" depart="552.00" from="5946040#0" to="-802011872#0"/>
    <trip id="277" depart="554.00" from="938386627" to="-31530615#7"/>
    <trip id="278" depart="556.00" from="50894751#3" to="1314866532"/>
    <trip id="279" depart="558.00" from="-331257524#3" to="-24537727#1"/>
    <trip id="280" depart="560.00" from="1303311912#0" to="971415142#2"/>
    <trip id="281" depart="562.00" from="-82660065#0" to="-5886673#9"/>
    <trip id="282" depart="564.00" from="40889665#0" to="-5836262#0"/>
    <trip id="283" depart="566.00" from="-185874129" to="-27843424#5"/>
    <trip id="284" depart="568.00" from="17167438#1" to="-1281140116#1"/>
    <trip id="285" depart="570.00" from="-5887449" to="-4800996#0"/>
    <trip id="286" depart="572.00" from="-1363394305#1" to="5944102#5"/>
    <trip id="287" depart="574.00" from="4800988#13" to="499495089#1"/>
    <trip id="288" depart="576.00" from="5080902#1" to="-1303311912#0"/>
    <trip id="289" depart="578.00" from="-8600143" to="-453824290#0"/>
    <trip id="290" depart="580.00" from="-531130577#2" to="442844416#1"/>
    <trip id="291" depart="582.00" from="1316184509" to="-74990158#0"/>
    <trip id="292" depart="584.00" from="441853976#1" to="5886678#0"/>
    <trip id="293" depart="586.00" from="4800984#5" to="441853969#1"/>
    <trip id="294" depart="588.00" from="-5079219#8" to="-315044279#2"/>
    <trip id="295" depart="590.00" from="971415142#3" to="-239332354"/>
    <trip id="296" depart="592.00" from="-5016238" to="315044279#1"/>
    <trip id="297" depart="594.00" from="531130577#2" to="75003621#3"/>
    <trip id="298" depart="596.00" from="-5944102#3" to="-5887457#1"/>
    <trip id="299" depart="598.00" from="1281928605#15" to="-453617458"/>
    <trip id="300" depart="600.00" from="5069386#1" to="-5886675#1"/>
    <trip id="301" depart="602.00" from="-5819069#6" to="5818941#7"/>
    <trip id="302" depart="604.00" from="-40191446#3" to="-8609620#3"/>
    <trip id="303" depart="606.00" from="-1281928604#0" to="-25786844#0"/>
    <trip id="304" depart="608.00" from="-4800992#2" to="5079228#1"/>
    <trip id="305" depart="610.00" from="-1305790150" to="-5886678#4"/>
    <trip id="306" depart="612.00" from="-31677854" to="8113582#5"/>
    <trip id="307" depart="614.00" from="-24537727#0" to="5079228#3"/>
    <trip id="308" depart="616.00" from="31530615#7" to="-1317110886"/>
    <trip id="309" depart="618.00" from="-30345060#0" to="5082496#0"/>
    <trip id="310" depart="620.00" from="302581368#2" to="25786844#0"/>
    <trip id="311" depart="622.00" from="441853978#0" to="5886678#0"/>
    <trip id="312" depart="624.00" from="-88369410#2" to="-1008958790#5"/>
    <trip id="313" depart="626.00" from="-5944193#2" to="-744557380#3"/>
    <trip id="314" depart="628.00" from="5087942" to="8600207#2"/>
    <trip id="315" depart="630.00" from="441853972#2" to="30344489#7"/>
    <trip id="316" depart="632.00" from="306652090#0" to="-5946552#0"/>
    <trip id="317" depart="634.00" from="-5945554#2" to="31677846#3"/>
    <trip id="318" depart="636.00" from="4800989#2" to="430493150"/>
    <trip id="319" depart="638.00" from="484129633#0" to="-4800988#17"/>
    <trip id="320" depart="640.00" from="-25786849" to="5944692#0"/>
    <trip id="321" depart="642.00" from="17167438#0" to="-28908536#0"/>
    <trip id="322" depart="644.00" from="441853977" to="40889665#0"/>
    <trip id="323" depart="646.00" from="-430172358" to="-5886676#7"/>
    <trip id="324" depart="648.00" from="-366288160#0" to="245444351#3"/>
    <trip id="325" depart="650.00" from="5079228#3" to="-331257524#5"/>
    <trip id="326" depart="652.00" from="441849943" to="-73903622#0"/>
    <trip id="327" depart="654.00" from="-25786841#1" to="-28908536#1"/>
    <trip id="328" depart="656.00" from="-75003617#1" to="1316184509"/>
    <trip id="329" depart="658.00" from="-30074868" to="1281928605#9"/>
    <trip id="330" depart="660.00" from="-1281928606#0" to="-430493150"/>
    <trip id="331" depart="662.00" from="1324324067#0" to="5069386#4"/>
    <trip id="332" depart="664.00" from="8113582#7" to="-1378899335"/>
    <trip id="333" depart="666.00" from="-228440174#1" to="5836262#0"/>
    <trip id="334" depart="668.00" from="-5886678#2" to="-5848582"/>
    <trip id="335" depart="670.00" from="331257531#2" to="5080916#1"/>
    <trip id="336" depart="672.00" from="-1375006809#0" to="-5069391#1"/>
    <trip id="337" depart="674.00" from="-245444350#3" to="5571784#1"/>
    <trip id="338" depart="676.00" from="-655254066" to="-1378899335"/>
    <trip id="339" depart="678.00" from="-455585142#1" to="-24537723#1"/>
    <trip id="340" depart="680.00" from="5944624#1" to="1281928607#9"/>
    <trip id="341" depart="682.00" from="-442679257" to="-32447239#1"/>
    <trip id="342" depart="684.00" from="-8600207#2" to="5887460#1"/>
    <trip id="343" depart="686.00" from="-74990158#7" to="-5946552#2"/>
    <trip id="344" depart="688.00" from="-653960282" to="-23938055#4"/>
    <trip id="345" depart="690.00" from="5098108#3" to="-1363394305#2"/>
    <trip id="346" depart="692.00" from="-24208873#1" to="-5887460#2"/>
    <trip id="347" depart="694.00" from="8600205#2" to="316937465#1"/>
    <trip id="348" depart="696.00" from="-5887463#1" to="23446080#0"/>
    <trip id="349" depart="698.00" from="-134430199#1" to="1281928607#8"/>
    <trip id="350" depart="700.00" from="30344489#4" to="-1008958790#4"/>
    <trip id="351" depart="702.00" from="-9355858#3" to="5087941#2"/>
    <trip id="352" depart="704.00" from="-33703772#1" to="23938055#1"/>
    <trip id="353" depart="706.00" from="-1228925746#2" to="-1009649604#5"/>
    <trip id="354" depart="708.00" from="5886675#1" to="-334964141#3"/>
    <trip id="355" depart="710.00" from="5945572#1" to="-705395508"/>
    <trip id="356" depart="712.00" from="-396135095#0" to="-23938055#6"/>
    <trip id="357" depart="714.00" from="4963285#0" to="-5076952#5"/>
    <trip id="358" depart="716.00" from="-453824290#0" to="1281928608#0"/>
    <trip id="359" depart="718.00" from="5079219#1" to="5945554#4"/>
    <trip id="360" depart="720.00" from="-5836261#2" to="-75003619#2"/>
    <trip id="361" depart="722.00" from="430493137#0" to="-1281140116#0"/>
    <trip id="362" depart="724.00" from="-366288160#1" to="1283284709#0"/>
    <trip id="363" depart="726.00" from="-1281928605#18" to="-5886676#9"/>
    <trip id="364" depart="728.00" from="-24537727#0" to="-1421714615#0"/>
    <trip id="365" depart="730.00" from="430493149#2" to="-455585142#0"/>
    <trip id="366" depart="732.00" from="4800984#3" to="441853969#0"/>
    <trip id="367" depart="734.00" from="5069387#4" to="24340771#2"/>
    <trip id="368" depart="736.00" from="73903625" to="705395508"/>
    <trip id="369" depart="738.00" from="135431422" to="1281928605#16"/>
    <trip id="370" depart="740.00" from="33703769#0" to="531130577#2"/>
    <trip id="371" depart="742.00" from="-5076952#1" to="-50894768"/>
    <trip id="372" depart="744.00" from="-5571784#2" to="5944102#7"/>
    <trip id="373" depart="746.00" from="1378899335" to="136018922"/>
    <trip id="374" depart="748.00" from="441849944#1" to="-40889665#3"/>
    <trip id="375" depart="750.00" from="82660052" to="5016290#1"/>
    <trip id="376" depart="752.00" from="-31530615#7" to="-31530615#5"/>
    <trip id="377" depart="754.00" from="-5945847" to="41756048"/>
    <trip id="378" depart="756.00" from="74990158#1" to="-245444352#3"/>
    <trip id="379" depart="758.00" from="490599363#1" to="-245444351#3"/>
    <trip id="380" depart="760.00" from="-331141419#0" to="-5087870#0"/>
    <trip id="381" depart="762.00" from="-24881567" to="24508406"/>
    <trip id="382" depart="764.00" from="453824293" to="5945812#5"/>
    <trip id="383" depart="766.00" from="-10057885#1" to="-1305790147"/>
    <trip id="384" depart="768.00" from="-74990158#9" to="-40889665#6"/>
    <trip id="385" depart="770.00" from="-441849945#2" to="-5946040#0"/>
    <trip id="386" depart="772.00" from="8113580#5" to="-1356958114"/>
    <trip id="387" depart="774.00" from="-75124764#13" to="-13272947"/>
    <trip id="388" depart="776.00" from="31406358#8" to="5069391#3"/>
    <trip id="389" depart="778.00" from="1393240306" to="31530615#10"/>
    <trip id="390" depart="780.00" from="75003621#2" to="5945575"/>
    <trip id="391" depart="782.00" from="-24340771#4" to="4800989#0"/>
    <trip id="392" depart="784.00" from="75124764#8" to="8113582#5"/>
    <trip id="393" depart="786.00" from="531130577#1" to="4800983#8"/>
    <trip id="394" depart="788.00" from="-5079219#11" to="-30344489#9"/>
    <trip id="395" depart="790.00" from="5946552#0" to="453617472"/>
    <trip id="396" depart="792.00" from="75124764#5" to="-507950080#0"/>
    <trip id="397" depart="794.00" from="1386298115#1" to="5944746#2"/>
    <trip id="398" depart="796.00" from="31677849#2" to="-5886678#7"/>
    <trip id="399" depart="798.00" from="-86328831" to="1009649604#0"/>
    <trip id="400" depart="800.00" from="-1348726858#0" to="1355686608"/>
    <trip id="401" depart="802.00" from="5818941#0" to="-5944235#1"/>
    <trip id="402" depart="804.00" from="971415145" to="1008958790#3"/>
    <trip id="403" depart="806.00" from="-30344489#7" to="-24508307#1"/>
    <trip id="404" depart="808.00" from="-1272517144#3" to="-1305790150"/>
    <trip id="405" depart="810.00" from="31530615#7" to="453617458"/>
    <trip id="406" depart="812.00" from="-5080900#2" to="13272947"/>
    <trip id="407" depart="814.00" from="14988710#3" to="-5887463#0"/>
    <trip id="408" depart="816.00" from="4800988#16" to="5571784#4"/>
    <trip id="409" depart="818.00" from="-939044236" to="-442844416#1"/>
    <trip id="410" depart="820.00" from="-653960282" to="-1281928605#18"/>
    <trip id="411" depart="822.00" from="664106672" to="1389332007"/>
    <trip id="412" depart="824.00" from="-315044279#4" to="-885485330#5"/>
    <trip id="413" depart="826.00" from="705393045#1" to="-24881567"/>
    <trip id="414" depart="828.00" from="-30344489#7" to="-1010751691"/>