<?xml version="1.0" encoding="UTF-8"?>

<!-- generated on 12/17/25 17:25:48 by Eclipse SUMO polyconvert Version 1.5.0
<configuration xmlns:xsi="http://www.w3.org/2001/XMLSchema-instance" xsi:noNamespaceSchemaLocation="http://sumo.dlr.de/xsd/polyconvertConfiguration.xsd">

    <input>
        <net-file value="unterschleissheim.net.xml"/>
        <osm-files value="unterschleissheim_raw.osm"/>
    </input>

    <output>
        <output-file value="unterschleissheim.poly.xml"/>
    </output>

    <processing>
        <poi-layer-offset value="5"/>
    </processing>

</configuration>
-->

<additional xmlns:xsi="http://www.w3.org/2001/XMLSchema-instance" xsi:noNamespaceSchemaLocation="http://sumo.dlr.de/xsd/additional_file.xsd">
    <location netOffset="-687396.31,-5347584.16" convBoundary="-833.49,0.00,5281.20,5281.07" origBoundary="11.514207,48.252504,11.596188,48.300114" projParameter="+proj=utm +zone=32 +ellps=WGS84 +datum=WGS84 +units=m +no_defs"/>

    <poly id="100457720" type="building" color="255,230,230" fill="1" layer="-1.00" shape="2795.919364,3070.625740 2800.358979,3066.445991 2791.722389,3057.323089 2787.274985,3061.513710 2795.919364,3070.625740"/>
    <poly id="100457723" type="building" color="255,230,230" fill="1" layer="-1.00" shape="2815.256903,3052.435242 2819.745131,3048.357268 2811.620758,3039.462855 2807.132530,3043.540835 2815.256903,3052.435242"/>
    <poly id="100457726" type="building" color="255,230,230" fill="1" layer="-1.00" shape="2800.358979,3066.445991 2804.806390,3062.255380 2796.162382,3053.132223 2791.722389,3057.323089 2800.358979,3066.445991"/>
    <poly id="1020762744" type="building" color="255,230,230" fill="1" layer="-1.00" shape="4307.243189,3731.355069 4314.012210,3734.097722 4313.498338,3735.905150 4326.814212,3741.371868 4324.330509,3746.984931 4318.465978,3744.506397 4317.952105,3746.313824 4310.508265,3743.103369 4311.052770,3740.607133 4304.505902,3737.883094 4307.243189,3731.355069"/>
    <poly id="1024760996" type="building" color="255,230,230" fill="1" layer="-1.00" shape="4116.063016,3312.904673 4116.085707,3312.671781 4111.745485,3308.575828 4119.607124,3300.495578 4123.926589,3304.546332 4116.063016,3312.904673"/>
    <poly id="1024761190" type="building" color="255,230,230" fill="1" layer="-1.00" shape="4111.745485,3308.575828 4106.811886,3304.237381 4114.675081,3295.890142 4119.607124,3300.495578 4111.745485,3308.575828"/>
    <poly id="1024761793" type="building" color="255,230,230" fill="1" layer="-1.00" shape="4086.240076,3309.119462 4088.186866,3306.659269 4092.830844,3301.508229 4085.921243,3295.200688 4079.098715,3302.637234 4086.240076,3309.119462"/>
    <poly id="1024761853" type="building" color="255,230,230" fill="1" layer="-1.00" shape="4108.466011,3321.728178 4098.417429,3313.145327 4102.042290,3308.928000 4112.090875,3317.510857 4108.466011,3321.728178"/>
    <poly id="1024762118" type="building" color="255,230,230" fill="1" layer="-1.00" shape="4108.466011,3321.728178 4104.988076,3325.772423 4103.630913,3324.614107 4094.939497,3317.189578 4098.417429,3313.145327 4108.466011,3321.728178"/>
    <poly id="1037193417" type="building" color="255,230,230" fill="1" layer="-1.00" shape="3241.877114,3297.281406 3247.244815,3290.896692 3245.276721,3288.905901 3239.051608,3294.505302 3241.877114,3297.281406"/>
    <poly id="1039138490" type="building" color="255,230,230" fill="1" layer="-1.00" shape="3159.455557,2247.323022 3158.243913,2244.244980 3168.269251,2240.308087 3167.563850,2238.526516 3169.942200,2237.593642 3172.633621,2244.392907 3170.293114,2245.304794 3169.464958,2243.196450 3164.677844,2245.083434 3166.519969,2249.740266 3169.131659,2248.715066 3186.846952,2293.512976 3182.142971,2295.358221 3162.654135,2246.072687 3159.455557,2247.323022"/>
    <poly id="1039138491" type="building" color="255,230,230" fill="1" layer="-1.00" shape="3144.784518,2252.695484 3146.494267,2256.869447 3143.640333,2258.031190 3161.745741,2302.052103 3166.572881,2300.077449 3147.323891,2251.389697 3150.981756,2249.731930 3149.704079,2246.629428 3134.657932,2252.779327 3136.086563,2256.254046 3144.784518,2252.695484"/>
    <poly id="1050158470" type="building" color="255,230,230" fill="1" layer="-1.00" shape="2900.694959,3095.190403 2895.249322,3088.810965 2886.510201,3079.206048 2856.937186,3105.665867 2870.834886,3121.351268 2900.694959,3095.190403"/>
    <poly id="1050158471" type="building" color="255,230,230" fill="1" layer="-1.00" shape="2900.694959,3095.190403 2909.524134,3105.210029 2879.657019,3131.359485 2870.834886,3121.351268 2900.694959,3095.190403"/>
    <poly id="1050158472" type="building" color="255,230,230" fill="1" layer="-1.00" shape="2895.249322,3088.810965 2902.792571,3081.986877 2894.046033,3072.381701 2886.510201,3079.206048 2895.249322,3088.810965"/>
    <poly id="1050675183" type="building" color="255,230,230" fill="1" layer="-1.00" shape="3678.631032,4567.677873 3651.494892,4602.137272 3643.710637,4596.045589 3650.325961,4587.644801 3646.130181,4584.355107 3662.873123,4563.120808 3670.729330,4569.281689 3674.522006,4564.457831 3678.631032,4567.677873"/>
    <poly id="1050675184" type="building" color="255,230,230" fill="1" layer="-1.00" shape="3735.022541,4565.867308 3725.051522,4577.571068 3691.150732,4548.838610 3701.463245,4537.135138 3735.022541,4565.867308"/>
    <poly id="1050675185" type="building" color="255,230,230" fill="1" layer="-1.00" shape="3691.150732,4548.838610 3682.870544,4541.595322 3693.190841,4529.880971 3701.463245,4537.135138 3691.150732,4548.838610"/>
    <poly id="1050675190" type="building" color="255,230,230" fill="1" layer="-1.00" shape="3844.155419,4468.974619 3845.324368,4469.981918 3847.208483,4471.580709 3852.841466,4465.027472 3837.822290,4452.183325 3832.181524,4458.747441 3844.155419,4468.974619"/>
    <poly id="1050675191" type="building" color="255,230,230" fill="1" layer="-1.00" shape="3270.936507,4563.977943 3259.370335,4579.222808 3219.184132,4549.003097 3230.654578,4533.732693 3270.936507,4563.977943"/>
    <poly id="1050675192" type="building" color="255,230,230" fill="1" layer="-1.00" shape="3270.936507,4563.977943 3274.556768,4559.192565 3234.259616,4528.957907 3230.654578,4533.732693 3270.936507,4563.977943"/>
    <poly id="1050675193" type="building" color="255,230,230" fill="1" layer="-1.00" shape="3364.366477,4547.183088 3304.355941,4500.376141 3278.285266,4533.237338 3341.165003,4582.154104 3348.214564,4573.188980 3361.048284,4556.685002 3358.500747,4554.719212 3364.366477,4547.183088"/>
    <poly id="1050675194" type="building" color="255,230,230" fill="1" layer="-1.00" shape="3278.285266,4533.237338 3270.321095,4526.962143 3296.392119,4494.089797 3304.355941,4500.376141 3278.285266,4533.237338"/>
    <poly id="1050675197" type="building" color="255,230,230" fill="1" layer="-1.00" shape="2660.279583,3783.738804 2645.426430,3798.474545 2637.767260,3790.797496 2652.620410,3776.061735 2660.279583,3783.738804"/>
    <poly id="1050675198" type="building" color="255,230,230" fill="1" layer="-1.00" shape="2137.922716,3167.412290 2130.362393,3174.559420 2123.158983,3166.976224 2129.553639,3160.936262 2130.719305,3159.829085 2137.922716,3167.412290"/>
    <poly id="1050675199" type="building" color="255,230,230" fill="1" layer="-1.00" shape="2145.141681,3158.028559 2140.401493,3162.554813 2135.384332,3157.336416 2140.132308,3152.799291 2145.141681,3158.028559"/>
    <poly id="1050675200" type="building" color="255,230,230" fill="1" layer="-1.00" shape="2099.043711,3196.480935 2094.661117,3200.752102 2090.322759,3196.335182 2094.705352,3192.064012 2099.043711,3196.480935"/>
    <poly id="1050675203" type="building" color="255,230,230" fill="1" layer="-1.00" shape="1986.935159,2923.628732 1986.007669,2932.977241 1978.546262,2932.239404 1979.481159,2922.891141 1986.935159,2923.628732"/>
    <poly id="1050677675" type="building" color="255,230,230" fill="1" layer="-1.00" shape="529.967398,1749.481306 521.624130,1749.083527 521.526219,1751.149730 507.019650,1750.470661 506.593097,1759.568766 515.018333,1759.958103 514.671985,1767.300950 507.700673,1766.970725 507.194636,1777.801861 519.357217,1778.381314 519.262242,1780.358605 531.202591,1780.919622 531.487082,1774.776340 529.566089,1774.690678 529.820780,1769.225098 527.454964,1769.113628 527.923171,1759.204700 529.502857,1759.279095 529.967398,1749.481306"/>
    <poly id="1050677676" type="building" color="255,230,230" fill="1" layer="-1.00" shape="496.114855,1723.931320 495.661483,1749.372613 491.823600,1749.301584 491.596637,1762.255867 483.705348,1762.117830 484.385979,1723.711142 496.114855,1723.931320"/>
    <poly id="1058387598" type="amenity" color="237,199,199" fill="1" layer="-1.00" shape="2885.030915,3443.698514 2904.760769,3456.163316 2914.665346,3439.782862 2895.143180,3426.879921 2885.030915,3443.698514"/>
    <poly id="1058387598#1" type="building" color="255,230,230" fill="1" layer="-1.00" shape="2885.030915,3443.698514 2904.760769,3456.163316 2914.665346,3439.782862 2895.143180,3426.879921 2885.030915,3443.698514"/>
    <poly id="107894611" type="building" color="255,230,230" fill="1" layer="-1.00" shape="1779.496610,3784.070106 1761.337581,3802.948295 1797.212805,3837.241510 1815.371862,3818.363434 1779.496610,3784.070106"/>
    <poly id="1083757582" type="parking" color="184,184,179" fill="1" layer="-1.00" shape="2396.566719,2631.993208 2402.059855,2629.851000 2406.777747,2628.016733 2427.508463,2619.940615 2449.069993,2674.911252 2467.262871,2721.313688 2436.336397,2733.366548 2396.566719,2631.993208"/>
    <poly id="1083757582#1" type="building" color="255,230,230" fill="1" layer="-1.00" shape="2396.566719,2631.993208 2402.059855,2629.851000 2406.777747,2628.016733 2427.508463,2619.940615 2449.069993,2674.911252 2467.262871,2721.313688 2436.336397,2733.366548 2396.566719,2631.993208"/>
    <poly id="1083757843" type="building" color="255,230,230" fill="1" layer="-1.00" shape="2402.059855,2629.851000 2400.379322,2598.953066 2405.240048,2597.067928 2406.777747,2628.016733 2402.059855,2629.851000"/>
    <poly id="1085988970" type="building" color="255,230,230" fill="1" layer="-1.00" shape="2604.213928,2552.247625 2590.835134,2557.219523 2584.705683,2559.507212 2596.044164,2589.181083 2622.209621,2579.395601 2610.935052,2549.590289 2604.213928,2552.247625"/>
    <poly id="1113278936" type="amenity" color="237,199,199" fill="1" layer="-1.00" shape="3056.245046,3609.422954 3059.686207,3611.329474 3062.255647,3607.554645 3058.718080,3605.422370 3056.245046,3609.422954"/>
    <poly id="1113278936#1" type="building" color="255,230,230" fill="1" layer="-1.00" shape="3056.245046,3609.422954 3059.686207,3611.329474 3062.255647,3607.554645 3058.718080,3605.422370 3056.245046,3609.422954"/>
    <poly id="115446653" type="building" color="255,230,230" fill="1" layer="-1.00" shape="3157.770084,2686.366416 3150.242105,2673.853189 3136.926164,2681.818902 3144.454158,2694.332111 3150.736683,2690.803996 3153.328965,2689.021561 3157.770084,2686.366416"/>
    <poly id="1160730183" type="building" color="255,230,230" fill="1" layer="-1.00" shape="3861.289584,3915.565775 3900.964506,3877.345187 3891.268998,3867.339215 3878.637364,3879.509652 3869.882089,3870.469947 3882.367937,3858.439233 3872.714998,3848.490359 3833.262289,3886.507208 3842.964901,3896.524444 3851.966690,3887.848005 3860.650406,3896.807392 3851.579621,3905.548257 3861.289584,3915.565775"/>
    <poly id="1160730184" type="building" color="255,230,230" fill="1" layer="-1.00" shape="3922.909025,3925.203499 3924.931480,3923.135234 3929.264965,3927.419992 3938.670853,3918.212079 3914.418754,3888.412187 3906.413285,3903.230442 3913.244306,3909.868956 3914.152730,3909.131779 3915.308452,3910.094134 3911.675334,3913.688197 3922.909025,3925.203499"/>
    <poly id="119378694" type="building" color="255,230,230" fill="1" layer="-1.00" shape="4505.026048,2597.257441 4489.174367,2613.835527 4496.846039,2621.126095 4512.697350,2604.559143 4505.026048,2597.257441"/>
    <poly id="119378697" type="building" color="255,230,230" fill="1" layer="-1.00" shape="4461.472679,2628.979439 4462.829640,2627.723383 4459.905035,2624.587275 4458.217826,2626.165994 4454.712522,2622.409486 4447.742929,2628.883826 4454.760951,2636.397085 4456.578397,2634.700365 4462.060417,2629.611206 4461.472679,2628.979439"/>
    <poly id="119378700" type="building" color="255,230,230" fill="1" layer="-1.00" shape="4626.630474,2646.432068 4633.530892,2648.178075 4635.569166,2640.157888 4636.776829,2635.403117 4631.827758,2634.156874 4632.092988,2633.119933 4627.924684,2632.066932 4626.965919,2635.828718 4629.182484,2636.393064 4626.630474,2646.432068"/>
    <poly id="119378719" type="building" color="255,230,230" fill="1" layer="-1.00" shape="4383.367079,2644.872741 4378.260580,2649.841105 4375.380428,2652.659195 4379.545141,2656.905182 4387.532168,2649.107619 4383.367079,2644.872741"/>
    <poly id="119378725" type="building" color="255,230,230" fill="1" layer="-1.00" shape="4432.333391,2712.124477 4425.094611,2704.993226 4416.544614,2713.628500 4423.775974,2720.759489 4432.333391,2712.124477"/>
    <poly id="119378731" type="building" color="255,230,230" fill="1" layer="-1.00" shape="4582.053715,2624.366612 4569.931166,2621.320766 4567.686817,2630.168507 4579.808973,2633.225462 4582.053715,2624.366612"/>
    <poly id="119378734" type="building" color="255,230,230" fill="1" layer="-1.00" shape="4401.676854,2634.463388 4395.398411,2640.927698 4402.160105,2647.453124 4408.438551,2640.988821 4401.676854,2634.463388"/>
    <poly id="119378738" type="building" color="255,230,230" fill="1" layer="-1.00" shape="4644.494761,2642.417295 4635.569166,2640.157888 4633.530892,2648.178075 4642.456475,2650.437479 4644.494761,2642.417295"/>
    <poly id="119378748" type="building" color="255,230,230" fill="1" layer="-1.00" shape="4455.579775,2709.937249 4454.582001,2710.893872 4453.568267,2711.883336 4452.301474,2713.109053 4451.840618,2713.560830 4451.464364,2713.926448 4451.057687,2714.313293 4450.811672,2714.560909 4450.404995,2714.947754 4450.089964,2715.259803 4454.950588,2720.230275 4460.432980,2714.907476 4455.579775,2709.937249"/>
    <poly id="119378781" type="building" color="255,230,230" fill="1" layer="-1.00" shape="4432.862375,2608.721828 4424.799085,2615.693405 4432.142167,2624.141085 4440.205456,2617.169518 4432.862375,2608.721828"/>
    <poly id="119378842" type="building" color="255,230,230" fill="1" layer="-1.00" shape="4416.470306,2622.389010 4410.195435,2629.187220 4415.411597,2633.969356 4421.686470,2627.171152 4416.470306,2622.389010"/>
    <poly id="119378853" type="building" color="255,230,230" fill="1" layer="-1.00" shape="4462.191518,2698.432823 4452.999998,2707.369089 4454.622307,2709.037110 4455.579775,2709.937249 4460.432980,2714.907476 4469.564777,2705.980336 4462.191518,2698.432823"/>
    <poly id="119378858" type="building" color="255,230,230" fill="1" layer="-1.00" shape="4460.677846,2551.200908 4460.357489,2551.891077 4455.728797,2556.341415 4453.558446,2558.371163 4461.421862,2566.146575 4465.153694,2562.522748 4466.896226,2560.845757 4467.433906,2560.318684 4468.591698,2559.022536 4460.677846,2551.200908"/>
    <poly id="119378863" type="building" color="255,230,230" fill="1" layer="-1.00" shape="4567.811200,2664.798305 4566.325234,2673.182059 4575.657940,2674.820881 4577.143544,2666.448243 4567.811200,2664.798305"/>
    <poly id="119378866" type="building" color="255,230,230" fill="1" layer="-1.00" shape="4464.802140,2675.188622 4459.977822,2669.140100 4451.071760,2676.216746 4455.896080,2682.265261 4464.802140,2675.188622"/>
    <poly id="119378872" type="building" color="255,230,230" fill="1" layer="-1.00" shape="4477.851061,2570.995200 4467.433906,2560.318684 4466.896226,2560.845757 4465.153694,2562.522748 4461.421862,2566.146575 4460.700135,2566.845468 4471.109495,2577.532835 4473.789348,2574.930567 4477.851061,2570.995200"/>
    <poly id="119378884" type="building" color="255,230,230" fill="1" layer="-1.00" shape="4489.335755,2589.440622 4482.253605,2597.268559 4485.475792,2600.169927 4482.960957,2602.944650 4487.041254,2606.609295 4496.638243,2596.006646 4489.335755,2589.440622"/>
    <poly id="119378889" type="building" color="255,230,230" fill="1" layer="-1.00" shape="4552.883883,2664.317123 4547.435814,2670.820405 4555.169539,2677.367679 4556.628772,2678.585172 4556.976859,2678.174105 4558.129855,2676.799928 4562.520768,2672.352779 4552.883883,2664.317123"/>
    <poly id="119378900" type="building" color="255,230,230" fill="1" layer="-1.00" shape="4429.497553,2651.923743 4423.822696,2657.006431 4430.365980,2664.281133 4436.048256,2659.198701 4429.497553,2651.923743"/>
    <poly id="119378904" type="building" color="255,230,230" fill="1" layer="-1.00" shape="4530.123177,2628.745963 4520.721918,2637.508162 4523.360225,2640.323108 4532.761484,2631.560914 4530.123177,2628.745963"/>
    <poly id="119378910" type="building" color="255,230,230" fill="1" layer="-1.00" shape="4401.153663,2678.862584 4394.557382,2685.282803 4401.033738,2691.898754 4407.630020,2685.478543 4401.153663,2678.862584"/>
    <poly id="119378913" type="building" color="255,230,230" fill="1" layer="-1.00" shape="4440.648648,2634.430474 4435.488585,2639.664021 4442.153794,2646.186245 4447.313858,2640.952704 4440.648648,2634.430474"/>
    <poly id="119378922" type="building" color="255,230,230" fill="1" layer="-1.00" shape="4416.115234,2666.204174 4409.638961,2671.927455 4414.820249,2677.743179 4421.296522,2672.019905 4416.115234,2666.204174"/>
    <poly id="119378939" type="building" color="255,230,230" fill="1" layer="-1.00" shape="4371.537801,2659.795302 4362.670904,2667.696758 4366.572214,2672.045125 4375.431691,2664.143425 4371.537801,2659.795302"/>
    <poly id="119378940" type="building" color="255,230,230" fill="1" layer="-1.00" shape="4332.567263,2698.381875 4327.249280,2705.000998 4337.077844,2712.864693 4342.395832,2706.245579 4332.567263,2698.381875"/>
    <poly id="119378948" type="building" color="255,230,230" fill="1" layer="-1.00" shape="4360.540404,2682.434291 4364.310691,2678.767195 4359.736595,2674.106875 4355.973727,2677.774224 4360.540404,2682.434291"/>
    <poly id="119378959" type="building" color="255,230,230" fill="1" layer="-1.00" shape="4392.579869,2636.626922 4383.959427,2627.513174 4380.507872,2630.757067 4389.128313,2639.870810 4392.579869,2636.626922"/>
    <poly id="1199515684" type="building" color="255,230,230" fill="1" layer="-1.00" shape="2793.599050,2575.785003 2804.236197,2565.959911 2794.285332,2555.246589 2783.648185,2565.071699 2793.599050,2575.785003"/>
    <poly id="1201055255" type="building" color="255,230,230" fill="1" layer="-1.00" shape="3990.488507,2845.275613 3997.904885,2849.563903 4003.692060,2839.577851 3996.275298,2835.300668 3990.488507,2845.275613"/>
    <poly id="1201070608" type="building" color="255,230,230" fill="1" layer="-1.00" shape="3695.102548,3187.110803 3706.984047,3192.883835 3709.065343,3188.625563 3712.167814,3182.265318 3700.286296,3176.492276 3695.102548,3187.110803"/>
    <poly id="1201070894" type="building" color="255,230,230" fill="1" layer="-1.00" shape="3630.572598,3174.774783 3636.840347,3177.655513 3640.851540,3169.000325 3634.583783,3166.119591 3630.572598,3174.774783"/>
    <poly id="1205649638" type="building" color="255,230,230" fill="1" layer="-1.00" shape="2493.758366,2106.716749 2507.673746,2100.827867 2501.718405,2076.730072 2527.389944,2066.671654 2538.795125,2089.271251 2561.332721,2080.755105 2547.495788,2025.296449 2517.879468,2036.702976 2521.890000,2052.302225 2496.114536,2062.357204 2488.880560,2047.418165 2473.779434,2053.000522 2478.774595,2067.141662 2481.399021,2073.526640 2483.126030,2078.757937 2485.824268,2085.156505 2493.758366,2106.716749"/>
    <poly id="1205649639" type="building" color="255,230,230" fill="1" layer="-1.00" shape="2460.853567,2118.525655 2474.834931,2113.328723 2467.101483,2092.209123 2464.476675,2085.612741 2462.689926,2080.390584 2460.025415,2073.870765 2455.167135,2060.746694 2440.034551,2066.383718 2444.125024,2082.041200 2418.356495,2091.228901 2410.996999,2076.931104 2396.399440,2082.341301 2416.219789,2135.484499 2430.465562,2130.151638 2423.813250,2105.785923 2449.511966,2096.017358 2460.853567,2118.525655"/>
    <poly id="1211930696" type="building" color="255,230,230" fill="1" layer="-1.00" shape="4207.345721,1389.002153 4212.628863,1378.810120 4223.421228,1384.380465 4218.131024,1394.561125 4207.345721,1389.002153"/>
    <poly id="1213634995" type="building" color="255,230,230" fill="1" layer="-1.00" shape="4506.532807,3368.384364 4510.422194,3356.332027 4521.356153,3359.782815 4524.079693,3360.720284 4520.190279,3372.772613 4515.505591,3371.412957 4512.564392,3370.323508 4506.532807,3368.384364"/>
    <poly id="1213635011" type="building" color="255,230,230" fill="1" layer="-1.00" shape="4614.302603,1749.467082 4604.177268,1734.060377 4606.663887,1729.270844 4616.736681,1745.354496 4614.302603,1749.467082"/>
    <poly id="1213635012" type="building" color="255,230,230" fill="1" layer="-1.00" shape="5035.333603,1542.353560 4990.564990,1518.921468 5008.473500,1484.912047 5053.234909,1508.344023 5035.333603,1542.353560"/>
    <poly id="1213939259" type="building" color="255,230,230" fill="1" layer="-1.00" shape="4263.602869,2409.531036 4268.537279,2412.323024 4271.095349,2413.777712 4272.468976,2411.365022 4264.976493,2407.118345 4263.602869,2409.531036"/>
    <poly id="1213939260" type="building" color="255,230,230" fill="1" layer="-1.00" shape="4261.014272,2421.115510 4259.767216,2423.298808 4267.485554,2427.675475 4269.064047,2424.913637 4263.240987,2421.602163 4262.909179,2422.191818 4261.014272,2421.115510"/>
    <poly id="1213939261" type="building" color="255,230,230" fill="1" layer="-1.00" shape="4179.732542,2393.611856 4176.527501,2398.800167 4178.972442,2400.306636 4184.765081,2403.861778 4187.970502,2398.662357 4179.732542,2393.611856"/>
    <poly id="1213939262" type="building" color="255,230,230" fill="1" layer="-1.00" shape="4182.442691,2388.562659 4179.732542,2393.611856 4187.970502,2398.662357 4191.102174,2393.226800 4182.442691,2388.562659"/>
    <poly id="1215632874" type="building" color="255,230,230" fill="1" layer="-1.00" shape="4136.301606,3124.414089 4131.694486,3129.788873 4124.162696,3123.426978 4128.582863,3118.090403 4136.301606,3124.414089"/>
    <poly id="1215632875" type="building" color="255,230,230" fill="1" layer="-1.00" shape="4131.694486,3129.788873 4127.085878,3135.208115 4119.554466,3128.835113 4124.162696,3123.426978 4131.694486,3129.788873"/>
    <poly id="1215632876" type="building" color="255,230,230" fill="1" layer="-1.00" shape="4118.738043,3146.253890 4114.826514,3151.262669 4107.635412,3145.590973 4111.716059,3140.632386 4118.738043,3146.253890"/>
    <poly id="1215632877" type="building" color="255,230,230" fill="1" layer="-1.00" shape="4111.716059,3140.632386 4118.738043,3146.253890 4122.535253,3141.552806 4115.513640,3135.920184 4111.716059,3140.632386"/>
    <poly id="1215632878" type="building" color="255,230,230" fill="1" layer="-1.00" shape="4151.872497,3138.612563 4144.740451,3147.073385 4139.453646,3142.634019 4146.473668,3134.191672 4151.872497,3138.612563"/>
    <poly id="1215632879" type="building" color="255,230,230" fill="1" layer="-1.00" shape="4139.453646,3142.634019 4134.634050,3138.655439 4141.654069,3130.213087 4146.473668,3134.191672 4139.453646,3142.634019"/>
    <poly id="1215632880" type="building" color="255,230,230" fill="1" layer="-1.00" shape="4125.104968,3159.864393 4129.493679,3163.405659 4136.255025,3155.366274 4131.826292,3151.690139 4125.104968,3159.864393"/>
    <poly id="1215632881" type="building" color="255,230,230" fill="1" layer="-1.00" shape="4125.104968,3159.864393 4120.883877,3156.417784 4127.589987,3148.254140 4131.826292,3151.690139 4125.104968,3159.864393"/>
    <poly id="1215632882" type="building" color="255,230,230" fill="1" layer="-1.00" shape="4135.325268,3095.830789 4127.268420,3107.275774 4120.469811,3102.518515 4124.088761,3097.377501 4121.418709,3095.507415 4124.491461,3091.149123 4126.566313,3092.609754 4127.939241,3090.653201 4135.325268,3095.830789"/>
    <poly id="1215632887" type="building" color="255,230,230" fill="1" layer="-1.00" shape="4087.488236,3182.420236 4080.032640,3193.217922 4072.713960,3187.586481 4080.556663,3177.202363 4087.488236,3182.420236"/>
    <poly id="1218279384" type="building" color="255,230,230" fill="1" layer="-1.00" shape="4534.282845,3063.475386 4526.519120,3060.476442 4522.915814,3058.975241 4524.370286,3055.486069 4528.987150,3043.669673 4540.361627,3048.170079 4540.191225,3048.598265 4537.074236,3056.459704 4534.282845,3063.475386"/>
    <poly id="1218279385" type="building" color="255,230,230" fill="1" layer="-1.00" shape="4523.463659,3092.940616 4532.406304,3096.435504 4534.055757,3092.229689 4534.046621,3091.839954 4535.891356,3087.128908 4536.411476,3085.800145 4527.615306,3082.365823 4523.463659,3092.940616"/>
    <poly id="1218279386" type="building" color="255,230,230" fill="1" layer="-1.00" shape="4518.205482,3068.718964 4526.450854,3072.190326 4528.470329,3067.362779 4530.104871,3063.378990 4521.925502,3059.932101 4518.205482,3068.718964"/>
    <poly id="1218279387" type="building" color="255,230,230" fill="1" layer="-1.00" shape="4480.897043,3081.179893 4484.755925,3071.796863 4498.103317,3077.253826 4496.744629,3080.545956 4494.244415,3086.636848 4480.897043,3081.179893"/>
    <poly id="1220479697" type="building" color="255,230,230" fill="1" layer="-1.00" shape="1840.445711,2833.863307 1849.817465,2834.330691 1850.157496,2827.454901 1840.785730,2826.987517 1840.445711,2833.863307"/>
    <poly id="1220479699" type="building" color="255,230,230" fill="1" layer="-1.00" shape="1881.582814,2837.634515 1892.849570,2837.842334 1892.972299,2831.026074 1881.712949,2830.818501 1881.582814,2837.634515"/>
    <poly id="1220479700" type="building" color="255,230,230" fill="1" layer="-1.00" shape="1906.405318,2835.099992 1911.938722,2835.083773 1911.918006,2825.659216 1906.392381,2825.664568 1906.405318,2835.099992"/>
    <poly id="1220479701" type="building" color="255,230,230" fill="1" layer="-1.00" shape="1975.558072,2835.008412 1983.290326,2835.198940 1983.114123,2842.502978 1975.381880,2842.312449 1975.558072,2835.008412"/>
    <poly id="1221927996" type="building" color="255,230,230" fill="1" layer="-1.00" shape="4665.033040,1501.889690 4669.655480,1504.259781 4672.190883,1499.349524 4667.576235,1496.968567 4665.033040,1501.889690"/>
    <poly id="1229232054" type="building" color="255,230,230" fill="1" layer="-1.00" shape="4456.398558,2824.456209 4453.084401,2821.863290 4449.047905,2827.479611 4452.020807,2830.061025 4456.398558,2824.456209"/>
    <poly id="1229232055" type="building" color="255,230,230" fill="1" layer="-1.00" shape="4477.098567,2854.828330 4474.873911,2853.184497 4471.228344,2857.779221 4473.319092,2859.429664 4477.098567,2854.828330"/>
    <poly id="1229232056" type="building" color="255,230,230" fill="1" layer="-1.00" shape="4479.274921,2884.119821 4468.702609,2875.641073 4475.408634,2866.843580 4485.906695,2875.542366 4479.274921,2884.119821"/>
    <poly id="1229235622" type="building" color="255,230,230" fill="1" layer="-1.00" shape="4523.184470,2877.244366 4519.110622,2873.835806 4516.396098,2877.249112 4520.581222,2880.661422 4523.184470,2877.244366"/>
    <poly id="1229897506" type="building" color="255,230,230" fill="1" layer="-1.00" shape="3640.635541,2262.015766 3651.608072,2255.318774 3655.193874,2261.124693 3643.973157,2267.913486 3640.635541,2262.015766"/>
    <poly id="1229897507" type="building" color="255,230,230" fill="1" layer="-1.00" shape="3655.349816,2266.437202 3661.625716,2262.909383 3667.967861,2274.226365 3661.719033,2277.832970 3655.349816,2266.437202"/>
    <poly id="124324230" type="building" color="255,230,230" fill="1" layer="-1.00" shape="2611.517028,3539.112382 2619.836774,3530.578201 2621.532095,3529.177274 2622.746308,3531.064783 2629.494871,3529.109404 2629.732217,3529.784907 2632.831056,3538.611393 2635.243267,3537.979871 2633.400251,3528.238464 2639.879933,3526.329749 2639.747590,3524.066696 2645.289255,3524.674575 2650.716667,3526.035230 2665.726049,3529.540651 2666.154846,3527.596749 2666.451591,3526.271508 2669.177574,3514.023524 2663.419703,3512.551677 2642.980637,3507.084719 2638.706298,3504.772343 2634.964940,3501.398522 2632.084779,3497.363636 2629.644879,3492.152943 2625.398203,3479.894618 2622.773356,3468.658441 2606.849036,3472.977739 2610.766393,3486.204163 2609.008396,3487.035561 2606.401083,3487.727337 2605.462371,3488.263432 2605.052764,3495.860122 2575.475900,3484.725440 2561.712547,3479.036611 2541.423142,3470.860219 2543.988594,3464.526002 2545.010025,3462.401604 2508.762548,3447.539853 2502.217164,3463.432229 2527.212388,3473.679258 2523.968601,3482.538754 2534.079176,3486.870548 2528.387905,3500.977826 2544.292693,3506.804815 2542.734203,3512.115649 2584.133787,3527.895123 2592.255534,3535.075708 2590.987477,3536.357394 2603.209545,3547.724866 2611.517028,3539.112382"/>