<?xml version="1.0" encoding="UTF-8"?>

<!-- generated on 12/15/25 17:29:03 by Eclipse SUMO duarouter Version 1.5.0
<configuration xmlns:xsi="http://www.w3.org/2001/XMLSchema-instance" xsi:noNamespaceSchemaLocation="http://sumo.dlr.de/xsd/duarouterConfiguration.xsd">

    <input>
        <net-file value="lenting.net.xml"/>
        <route-files value="lenting.trips.xml"/>
    </input>

    <output>
        <output-file value="lenting.rou.xml"/>
        <alternatives-output value="lenting.rou.alt.xml"/>
    </output>

    <report>
        <ignore-errors value="true"/>
    </report>

</configuration>
-->

<routes xmlns:xsi="http://www.w3.org/2001/XMLSchema-instance" xsi:noNamespaceSchemaLocation="http://sumo.dlr.de/xsd/routes_file.xsd">
    <vehicle id="0" depart="0.00">
        <route edges="380554571#1 61880999 61880997 173830100 173830096 -173830089 -1137892630 -50289865#7 -50289865#6 -50289865#5 -50289865#4 -50289865#3 -50289865#2 -50289865#1 -50289865#0 -1185644577 -141914118 -65491175#4 -65491175#3 -65491175#2 -65491175#0 -29459184 -65491192#2 -65491192#1 -65491192#0 -33119295#7 -33119295#6 -33119295#5 -33119295#4 -33119295#3 -33119295#2 -33119295#1 -33119295#0 -888754825#1 -888754825#0 23422452#0 23422452#1"/>
    </vehicle>
    <vehicle id="1" depart="2.00">
        <route edges="-55687755#1 -55687755#0 -31959473#2 -31959473#1 -31959473#0 -23419974#4 -23419974#3 -23419974#2 -23419974#1 -23419974#0 -1408873046 -972620123#2 -972620123#1 -972620123#0 -31400746 -914222967 -65489703 65489701 -141914118 -65491175#4 -65491175#3 -65491175#2 -65491175#0 -29459184 -65491192#2 -65491192#1 -65491192#0 -30134120#5 -30134120#4 -28049943#2 -28049942"/>
    </vehicle>
    <vehicle id="2" depart="4.00">
        <route edges="-28442832#2 -28442832#0 23422452#3 23422452#4 -108589371#3 -108589371#2 -108589371#1 -108589371#0 -108589377 -27846449 -27834535#2 -27834535#1 -27834535#0 -26845542#9 -26845542#8 -26845542#7 -26845542#6 -26845542#5 -26845542#3 -26845542#2 -26845542#1 -26845542#0 45396180#1 -45396180#1"/>
    </vehicle>
    <vehicle id="3" depart="6.00">
        <route edges="65491187 31960600 31960599 892373616 28912017#0 28912017#1 28912017#2 -23422452#11 -23422452#10 -23422452#9 -27846458 -28366502#2 -28366502#1 -28366502#0 -108589369#1 -108589369#0 -108589368 -27779117#2 -27779117#1 -31959431#0 -27834535#2 -27834535#1 -27834535#0 27779116#1 972620128 108589367 108589372 26845634#0 26845634#1 -26845634#1"/>
    </vehicle>
    <vehicle id="4" depart="8.00">
        <route edges="380554572#1 1377474667 380554571#0 380554571#1 61880999 61880997 173830100 173830096 -173830089 -1137892630 -50289865#7 -50289865#6 -50289865#5 -50289865#4 -50289865#3 -50289865#2 -50289865#1 -50289865#0 -1185644577 -141914118 -65491175#4 -65491175#3 -65491175#2 -65491175#0 -29459184 -65491192#2 -65491192#1 -65491192#0 -65491182 -1408873047 -30134117 -11940927#2 -11940927#1 -11940927#0 -1288640775 -624350642"/>
    </vehicle>
    <vehicle id="5" depart="10.00">
        <route edges="11940927#0 11940927#1 11940927#2 30134117 1408873047 65491182 65491192#0 65491192#1 65491192#2 29459184 65491175#0 65491175#2 65491175#3 65491175#4 141914118 1185644577 50289865#0 50289865#1 50289865#2 50289865#3 50289865#4 50289865#5 50289865#6 50289865#7 1137892630 173830089 1137892628 173830086 305495776 1137892624 1137892623 1137892627 1137892626 888754832 888754831 173830101 -61880997 22983743 305495770#0 305495770#1 -1377474667 -380554572#1 -380554572#0 -45396180#3 -45396180#2 -45396180#1 -45396180#0 29459186 27760044#0 27760044#1 27834884#0"/>
    </vehicle>
    <vehicle id="6" depart="12.00">
        <route edges="-173830089 -1137892630 -50289865#7 -50289865#6 -50289865#5 -50289865#4 -50289865#3 -50289865#2 -50289865#1 -50289865#0 -1185644577 -141914118 -65491175#4 -65491175#3 -65491175#2"/>
    </vehicle>
    <vehicle id="7" depart="14.00">
        <route edges="26845634#7 26845634#8 45396181 45396180#0 45396180#1 45396180#2 45396180#3 380554572#0 380554572#1 1377474667 380554571#0 27834533#0 27834533#1 27834533#2 -27834533#2 -27834533#1 -27834533#0"/>
    </vehicle>
    <vehicle id="8" depart="16.00">
        <route edges="27834717 26845542#7 26845542#8 26845542#9 27779116#1 972620128 108589367 108589372 27761241#0 -28442832#5 -28442832#4 -28442832#3"/>
    </vehicle>
    <vehicle id="9" depart="18.00">
        <route edges="-55687753#0 -23419974#12 -23419974#11 -23419974#10 -23419974#9 -23419974#8 -23419974#7 -23419974#6 -23419974#5 -23419974#4 -23419974#3 -23419974#2 -23419974#1 -23419974#0 -1408873046 -972620123#2 -972620123#1 -972620123#0 -31400746 -914222967 -65489703 65489701 1185644577 50289865#0 50289865#1 50289865#2"/>
    </vehicle>
    <vehicle id="10" depart="20.00">
        <route edges="27866262 108589376 108589370#0 -39499898 -892373619 -892373620 -39499899 -22733682 33119295#3 33119295#4 33119295#5 33119295#6 33119295#7 -65491182 -1408873047"/>
    </vehicle>
    <vehicle id="11" depart="22.00">
        <route edges="-27834543#1 -27834543#0 27834532 27834542 108589373"/>
    </vehicle>
    <vehicle id="12" depart="24.00">
        <route edges="-65491187 27885488 1373295289 -33119295#7 -33119295#6 -33119295#5 -33119295#4 -33119295#3 22733682 39499899 892373620 892373619 39499898 -39399257 -23422452#10 -23422452#9 -27846458 -28366502#2 -28366502#1 -28366502#0 -108589369#1 -108589369#0 -108589368 -27779117#2 -27779117#1 -31959431#0 -27834535#2 -27834535#1 -27834535#0 27779116#1 972620128 108589367 108589372 26845634#0"/>
    </vehicle>
    <vehicle id="13" depart="26.00">
        <route edges="27885770#3 107830716#0 107830716#1 107830717 -28579593 28579593"/>
    </vehicle>
    <vehicle id="14" depart="28.00">
        <route edges="-33119295#7 -33119295#6 27872270#0 27872270#1 27872270#2 27872270#3 1232757821#0 1232757821#1"/>
    </vehicle>
    <vehicle id="15" depart="30.00">
        <route edges="108589371#2 108589371#3 -108589371#3 -108589371#2 -108589371#1 -108589371#0 -108589377 -27846449 -27834535#2 -27834535#1 -27834535#0 -26845542#9 27834534 27834716 29459185#5 50289865#7 1137892630 173830089 -173830089"/>
    </vehicle>
    <vehicle id="16" depart="32.00">
        <route edges="26180375#2 26180375#3 -27827904#1 -27827904#0 491958947#3 -168747077#3 -168747077#2 -168747077#1 -168747077#0 -168747076 -31959431#3 -31959431#2 -31959431#0 27846449 108589377 108589371#0 108589371#1 108589371#2 108589371#3 -108589371#3 -108589371#2 -108589371#1 -108589371#0 -108589377 -27846449"/>
    </vehicle>
    <vehicle id="17" depart="34.00">
        <route edges="65491187 31960600 31960599 -31299746#1 -31299746#0 -993259204 29459184 65491175#0 65491175#2 65491175#3 65491175#4 141914118 1185644577 50289865#0 50289865#1 50289865#2 50289865#3 50289865#4 50289865#5 50289865#6 50289865#7 1137892630 173830089 1137892628 173830086 305495776 1137892624 1137892623"/>
    </vehicle>
    <vehicle id="19" depart="38.00">
        <route edges="27827723#0 27827723#1 -27827723#1 -27827723#0 26845542#0 26845542#1 26845542#2 26845542#3 26845542#5 26845542#6 26845542#7 26845542#8 26845542#9 27834535#0 27834535#1 27834535#2 31959431#0 27779117#1 27779117#2 108589368 108589369#0 108589369#1 28366502#0 28366502#1 28366502#2 27846458 23422452#9 23422452#10 39399257 -39499898 -892373619 -892373620 -39499899 -22733682 -33119295#2"/>
    </vehicle>
    <vehicle id="20" depart="40.00">
        <route edges="-27846449 -27834535#2 -27834535#1 -27834535#0 -26845542#9 -26845542#8 -26845542#7 -26845542#6 -26845542#5 -26845542#3 -26845542#2 -26845542#1 -26845542#0 -45396180#0 29459186 27834527#0 27834527#1"/>
    </vehicle>
    <vehicle id="21" depart="42.00">
        <route edges="455094929 32939592 30134120#0 30134120#1 30134120#2 30134120#3 30134120#4 30134120#5 -33119295#7 -33119295#6 -33119295#5 -33119295#4 -33119295#3 22733682 39499899 892373620 892373619 39499898 -39399257 -23422452#10 -23422452#9 -27846458 -28366502#2 -28366502#1 -28366502#0 -108589369#1 -108589369#0 -108589368 -27779117#2 -27779117#1 27779117#1 27779117#2"/>
    </vehicle>
    <vehicle id="23" depart="46.00">
        <route edges="-28366523 -39399248#0 -108589369#0 -108589368 -27779117#2 -27779117#1 27779117#1"/>
    </vehicle>
    <vehicle id="25" depart="50.00">
        <route edges="-39499895#6 27834716 29459185#5 -50289865#6 -50289865#5 -50289865#4 -50289865#3 -50289865#2 -50289865#1 -50289865#0 -1185644577 -141914118 -65491175#4 -65491175#3 -65491175#2 -65491175#0 -29459184 -65491192#2 -65491192#1 -65491192#0 -30134120#5 -30134120#4 -30134120#3 -30134120#2 30134120#2"/>
    </vehicle>
    <vehicle id="26" depart="52.00">
        <route edges="27867380#1 -28442832#0 23422452#3 23422452#4 23422452#5 23422452#6 23422452#7 23422452#8"/>
    </vehicle>
    <vehicle id="29" depart="58.00">
        <route edges="65491175#2 65491175#3 65491175#4 141914118 -141914118 -65491175#4 -65491175#3 -65491175#2 -65491175#0 -29459184 -65491192#2 -65491192#1 -65491192#0 -33119295#7 -33119295#6 -33119295#5 -33119295#4 -33119295#3 -33119295#2 -33119295#1 -33119295#0 -888754825#1 -888754825#0 32938645 32938646#0 32938646#1 33048879 33048878 27192996 -27192996 -33048878 -33048879"/>
    </vehicle>
    <vehicle id="30" depart="60.00">
        <route edges="-55687755#1 -55687755#0 -31959473#2 -31959473#1 -31959473#0 -23419974#4 -23419974#3 -23419974#2 -23419974#1 -23419974#0 -1408873046 -972620123#2 -972620123#1 -972620123#0 -31400746 -914222967 -65489703 65489701 -141914118 -65491175#4 -65491175#3 -65491175#2 -65491175#0 -29459184 -65491192#2 -65491192#1 -65491192#0 -33119295#7 -33119295#6 -33119295#5 -33119295#4 -33119295#3 -33119295#2 -33119295#1 -33119295#0 -888754825#1 -888754825#0 23422452#0 23422452#1 28442831 28442832#2 28442832#3 28442832#4 28442832#5 27761241#2"/>
    </vehicle>
    <vehicle id="31" depart="62.00">
        <route edges="50289865#5 50289865#6 -50289865#6 -50289865#5 -50289865#4 -50289865#3 -50289865#2 -50289865#1 -50289865#0 -1185644577 141914121 65489702 65489703 914222967 31400746 972620123#0 972620123#1 -25708161"/>
    </vehicle>
    <vehicle id="34" depart="68.00">
        <route edges="-28912017#4 -23422452#11 -23422452#10 -23422452#9 -23422452#8 -23422452#7 -23422452#6 -23422452#5 -23422452#4 -23422452#3 28442832#0 28442832#2 28442832#3 28442832#4 28442832#5 27761241#2 27761241#3 -27761242#4 27834519#0 27834519#1 27834519#2 27834885"/>
    </vehicle>
    <vehicle id="35" depart="70.00">
        <route edges="-1232757821#1 -1232757821#0 -27872270#3 -27872270#2 -27872270#1 -27872270#0 33119295#6 33119295#7 65491192#0 65491192#1 65491192#2 29459184 65491175#0 65491175#2 65491175#3 65491175#4 141914118 -141914118 -65491175#4 -65491175#3"/>
    </vehicle>
    <vehicle id="36" depart="72.00">
        <route edges="-50289865#7 50289865#7 1137892630 173830089 1137892628 173830086 305495776 1137892624 1137892623 1137892627 1137892626 888754832 888754831 173830101 -61880997 22983743 305495770#0 305495770#1 -1377474667 -380554572#1 -380554572#0 -45396180#3 -45396180#2 -45396180#1 -45396180#0 29459186 27760044#0 27760044#1 27834521 27834885"/>
    </vehicle>
    <vehicle id="37" depart="74.00">
        <route edges="173830100 173830096 -173830089 -1137892630 -50289865#7 -50289865#6 -50289865#5 -50289865#4 -50289865#3 -50289865#2 -50289865#1 -50289865#0 -1185644577 -141914118 -65491175#4 -65491175#3 -65491175#2 -65491175#0 -29459184 -65491192#2 -65491192#1 -65491192#0 -33119295#7 -33119295#6 -33119295#5 -33119295#4 -33119295#3 -33119295#2 -33119295#1 -33119295#0 -27872266#1 -27872266#0 -27872265#1"/>
    </vehicle>
    <vehicle id="38" depart="76.00">
        <route edges="27834539#1 27834539#2 31299747 989193342 993259204 31299746#0 31299746#1 892373616"/>
    </vehicle>
    <vehicle id="40" depart="80.00">
        <route edges="-141914118 -65491175#4 -65491175#3 -65491175#2 65491175#2 65491175#3 65491175#4 141914118 141914121 65489702 65489703 914222967 31400746 972620123#0 972620123#1 972620123#2 1408873046 23419974#0 23419974#1 23419974#2 23419974#3 23419974#4 31959473#0 31959473#1 31959473#2 -29204406#2"/>
    </vehicle>
    <vehicle id="41" depart="82.00">
        <route edges="39399255#1 23422452#8 -27846458 28366502#3 -27834538#1 -27834538#0 39399248#3 39399248#4"/>
    </vehicle>
    <vehicle id="42" depart="84.00">
        <route edges="28231403#1 -28231403#1 -29399347#4 -29399347#3 29399555#0 29399555#1"/>
    </vehicle>
    <vehicle id="43" depart="86.00">
        <route edges="168747076 168747077#0 168747077#1 168747077#2 168747077#3 -168747077#3 -168747077#2 -168747077#1 -168747077#0 -168747076 -31959431#3 -31959431#2 27779117#1 27779117#2 108589368 108589369#0 108589369#1 28366502#0"/>
    </vehicle>
    <vehicle id="44" depart="88.00">
        <route edges="-27834519#1 -27759955#1 -27759955#0 26845634#6 26845634#7 26845634#8 45396181 45396180#0 45396180#1 45396180#2 45396180#3 380554572#0 380554572#1 1377474667 380554571#0 380554571#1 61880999 61880997 173830100 173830096 -173830089 -1137892630 -50289865#7 -50289865#6 -50289865#5 -50289865#4"/>
    </vehicle>
    <vehicle id="45" depart="90.00">
        <route edges="32938645 32938646#0 -32938646#0 -32938645 888754825#0 888754825#1 33119295#0 33119295#1 33119295#2 33119295#3 33119295#4 33119295#5 33119295#6 33119295#7 65491192#0 65491192#1 65491192#2 29459184 65491175#0 65491175#2 65491175#3 65491175#4 141914118 141914121 65489702 65489703 914222967 31400746 972620123#0 972620123#1 972620123#2 1408873046 23419974#0 23419974#1"/>
    </vehicle>
    <vehicle id="46" depart="92.00">
        <route edges="972620122#1 1408873043 1408873044 136888471#0 136888471#1 136888471#2 136888471#3 173767251 -173767251 -136888471#3 -136888471#2 -136888471#1 -136888471#0 -1408873044 -1408873043 -972620122#1 -972620122#0 -1408873045 -1408873046 -972620123#2 -972620123#1 -972620123#0 -31400746 -914222967 -65489703 65489701 -141914118 -65491175#4 -65491175#3 -65491175#2 -65491175#0 -29459184 -65491192#2 -65491192#1 -65491192#0 -33119295#7 -33119295#6 -33119295#5 -33119295#4 -33119295#3 22733682 39499899 892373620 892373619 39499898 -108589370#0"/>
    </vehicle>
    <vehicle id="47" depart="94.00">
        <route edges="28442832#2 28442832#3 28442832#4 28442832#5 -27761241#0 -108589372 -108589367 -972620128 -27779116#1 -26845542#9 27834534 -39499895#4 -39499895#3 -39499895#2 -39499895#1 -39499895#0 27834543#1 -27834543#1"/>
    </vehicle>
    <vehicle id="48" depart="96.00">
        <route edges="-108589371#0 -108589377 -27846449 -27834535#2 -27834535#1 -27834535#0 -26845542#9 27834534"/>
    </vehicle>
    <vehicle id="49" depart="98.00">
        <route edges="65489701 141914121 65489702 65489703 914222967 31400746 972620123#0 972620123#1 972620123#2 1408873046 23419974#0 23419974#1 23419974#2 23419974#3 23419974#4 23419974#5 23419974#6 23419974#7 23419974#8 23419974#9 23419974#10 23419974#11 23419974#12 55687753#0 55687753#1 55687753#2 813536479"/>
    </vehicle>
    <vehicle id="50" depart="100.00">
        <route edges="173830096 1137892628 173830086 305495776 1137892624 1137892623 1137892627 1137892626 888754832 888754831 173830101 -61880997 22983743 305495770#0 305495770#1 380554571#0 27834533#0 27834533#1 27834533#2 -27834543#1 39499895#0 39499895#1 27834717 26845542#7"/>
    </vehicle>
    <vehicle id="52" depart="104.00">
        <route edges="27837251#1 -27834527#0 -29459186 45396180#0 45396180#1 45396180#2 45396180#3 380554572#0 380554572#1 1377474667 380554571#0 380554571#1 61880999 61880997 173830100 173830096 -173830089 -1137892630 -50289865#7 -50289865#6 -50289865#5 -50289865#4 -50289865#3 -50289865#2 -50289865#1 -50289865#0 -1185644577 141914121 65489702 65489703 914222967 31400746 972620123#0 972620123#1 972620123#2 1408873046 1408873045 972620122#0 972620122#1 1408873043 1408873044 136888471#0 136888471#1 136888471#2 136888471#3 173767251 -173767251 -136888471#3 -136888471#2 -136888471#1 -136888471#0 -1408873044 -1408873043 -972620122#1"/>
    </vehicle>
    <vehicle id="53" depart="106.00">
        <route edges="-29399265#6 -29399265#5 -29399265#4 -29399265#3 -29399265#2 -29399234#3 -29399234#2 -29399234#1 -29399265#0 -39581909#4 -39581909#3 -39581909#2 29399347#0 -29399555#2 29399555#2"/>
    </vehicle>
    <vehicle id="54" depart="108.00">
        <route edges="-55687755#0 -31959473#2 -31959473#1 -31959473#0 -23419974#4 -23419974#3 -23419974#2 -23419974#1 -23419974#0 -1408873046 -972620123#2 -972620123#1 -972620123#0 -31400746 -914222967 -65489703 65489701 1185644577 50289865#0 50289865#1 50289865#2 50289865#3 50289865#4 50289865#5 50289865#6 50289865#7 1137892630 173830089 1137892628 173830086 305495776 1137892624 1137892623 1137892627 1137892626 888754832 888754831 173830101 -61880997 22983743 305495770#0 305495770#1 -1377474667 -380554572#1 -380554572#0 -45396180#3 -45396180#2 -45396180#1 -45396180#0 29459186 27760044#0 27760044#1 27760044#2"/>
    </vehicle>
    <vehicle id="56" depart="112.00">
        <route edges="-28049942 -27865999#1 -27865999#0 30134120#3 30134120#4 30134120#5 65491192#0 65491192#1 65491192#2 29459184 65491175#0 65491175#2 65491175#3 65491175#4 141914118 141914121 65489702 65489703 914222967 31400746 972620123#0 972620123#1 972620123#2 1408873046 23419974#0 23419974#1 23419974#2 23419974#3 23419974#4 31959473#0 31959473#1 31959473#2 55687755#0 55687755#1 -55687755#1 -55687755#0"/>
    </vehicle>
    <vehicle id="57" depart="114.00">
        <route edges="27779117#1 27779117#2 108589368 108589369#0 108589369#1 28366502#0 28366502#1 28366502#2 28366502#3"/>
    </vehicle>
    <vehicle id="60" depart="120.00">
        <route edges="-1232757821#0 -27872270#3 -27872270#2 -27872270#1 -27872270#0 33119295#6 33119295#7 65491192#0 65491192#1 65491192#2 29459184 65491175#0 65491175#2 65491175#3 65491175#4 141914118 1185644577 50289865#0 50289865#1 50289865#2 50289865#3 50289865#4 27885770#0 27885770#1 27885770#2"/>
    </vehicle>
    <vehicle id="61" depart="122.00">
        <route edges="136888471#2 136888471#3 173767251 -173767251 -136888471#3 -136888471#2 -136888471#1 -136888471#0 -1408873044 -1408873043 -972620122#1 -972620122#0 -1408873045 -1408873046 -972620123#2 -972620123#1 -972620123#0 -31400746 -914222967 -65489703 65489701 -141914118 -65491175#4 -65491175#3 -65491175#2 -65491175#0 -29459184 -65491192#2 -65491192#1 -65491192#0 -33119295#7 -33119295#6 -33119295#5 -33119295#4 -33119295#3 22733682 39499899 892373620 892373619 39499898 -108589370#0 -108589376 -27866262 -23422452#6 -23422452#5 -23422452#4"/>
    </vehicle>
    <vehicle id="63" depart="126.00">
        <route edges="-32938646#1 -32938646#0 -32938645 888754825#0 888754825#1 33119295#0 33119295#1 33119295#2 33119295#3 33119295#4 33119295#5 33119295#6 33119295#7 -65491182 -1408873047 -30134117 -11940927#2 -11940927#1 -11940927#0 -1288640775 1288640775 11940927#0 11940927#1 11940927#2"/>
    </vehicle>
    <vehicle id="64" depart="128.00">
        <route edges="27865999#0 -27865999#0 30134120#3 30134120#4 30134120#5 -33119295#7 -33119295#6 -33119295#5 -33119295#4 -33119295#3 22733682 39499899 892373620 892373619 39499898 -39399257 -23422452#10 -23422452#9 -27846458 -28366502#2 -28366502#1 -28366502#0 -108589369#1 -108589369#0 -108589368 -27779117#2 -27779117#1 -31959431#0 -27834535#2 -27834535#1 -27834535#0 27779116#1 972620128 108589367 108589372 26845634#0 26845634#1"/>
    </vehicle>
    <vehicle id="65" depart="130.00">
        <route edges="-65491192#1 -65491192#0 -1373295289 -27885488 65491187 31960600 31960599 892373616 28912017#0 28912017#1 28912017#2 28912017#4 28912017#6 28912017#7 28912017#8 491958947#0 491958947#1"/>
    </vehicle>
    <vehicle id="66" depart="132.00">
        <route edges="-108589370#2 -39399257 -23422452#10 -23422452#9 -27846458 -28366502#2 -28366502#1 -28366502#0 -108589369#1 -108589369#0 -108589368 -27779117#2 -27779117#1 -31959431#0 -27834535#2 -27834535#1 -27834535#0 -26845542#9 -26845542#8 -26845542#7 -26845542#6 -26845542#5 -26845542#3 -26845542#2 -26845542#1 -26845542#0 -45396180#0 29459186 27760044#0 27760044#1 27760044#2 27760044#3"/>
    </vehicle>
    <vehicle id="67" depart="134.00">
        <route edges="27759955#0 -27760042#2 -27760042#1 -27760042#0 -27761241#0 27761241#0"/>
    </vehicle>
    <vehicle id="68" depart="136.00">
        <route edges="-27827903#0 27827903#0 27827903#1 27827904#3 27827904#4 -50289865#4 -50289865#3 -50289865#2 -50289865#1 -50289865#0 -1185644577 -141914118 -65491175#4 -65491175#3 -65491175#2 65491175#2"/>
    </vehicle>
    <vehicle id="69" depart="138.00">
        <route edges="41400365 41400366 -41400366 -41400365 -28763437 -28763438#1 -28763438#0 -23422304 -972620123#0 -31400746 -914222967 -65489703 65489701 1185644577 50289865#0 50289865#1 50289865#2 50289865#3 50289865#4 50289865#5 50289865#6 50289865#7 1137892630 173830089 1137892628 173830086 305495776 1137892624 1137892623 1137892627 1137892626 888754832 888754831 173830101 -61880997 22983743 305495770#0 305495770#1 380554571#0 27834533#0 27834533#1"/>
    </vehicle>
    <vehicle id="70" depart="140.00">
        <route edges="-27866000 -27865999#0 30134120#3 30134120#4 30134120#5 -1373295289 -27885488 65491187 31960600 31960599 892373616 28912017#0 28912017#1 28912017#2 28912017#4 28912017#6 28912017#7 28912017#8 491958947#0 491958947#1 491958947#2 491958947#3 29459185#0 29459185#1 29459185#2 29459185#3 -27835104#1 -27835104#0"/>
    </vehicle>
    <vehicle id="73" depart="146.00">
        <route edges="31960600 31960599 -31960599 -31960600"/>
    </vehicle>
    <vehicle id="74" depart="148.00">
        <route edges="-23419974#9 -23419974#8 -23419974#7 23419974#7 23419974#8 23419974#9 23419974#10 23419974#11 23419974#12 55687753#0 55687753#1"/>
    </vehicle>
    <vehicle id="76" depart="152.00">
        <route edges="-31369580 39399255#1 23422452#8 23422452#9 23422452#10 39399257 -39499898 -892373619 -892373620 -39499899 -22733682 33119295#3 33119295#4 33119295#5 27872270#0 27872270#1 -27866005"/>
    </vehicle>
    <vehicle id="77" depart="154.00">
        <route edges="888754825#0 888754825#1 -888754825#1 -888754825#0 23422452#0 23422452#1 23422452#2 23422452#3 23422452#4 -108589371#3 -108589371#2 -108589371#1 -108589371#0 -108589377 -27846449 -27834535#2"/>
    </vehicle>
    <vehicle id="78" depart="156.00">
        <route edges="27834543#0 39499895#0 39499895#1 39499895#2 39499895#3 39499895#4 39499895#6 39499895#7 39499895#8 -31959431#2 27779117#1 27779117#2 108589368 108589369#0 108589369#1 28366502#0 28366502#1 28366502#2 27846458 23422452#9 23422452#10 39399257 -39399257"/>
    </vehicle>
    <vehicle id="79" depart="158.00">
        <route edges="28366502#0 -28366502#0 -108589369#1 -108589369#0 -108589368 -27779117#2 -27779117#1 31959431#2 -39499895#8 -39499895#7 -39499895#6 -39499895#4 39499895#4"/>
    </vehicle>
    <vehicle id="80" depart="160.00">
        <route edges="-33119295#2 -33119295#1 33119295#1 33119295#2 33119295#3 33119295#4 33119295#5 33119295#6 33119295#7 65491192#0 65491192#1 65491192#2 29459184 65491175#0 -65491175#0"/>
    </vehicle>
    <vehicle id="81" depart="162.00">
        <route edges="-108589377 -27846449 -27834535#2 -27834535#1 -27834535#0 -26845542#9 27834534 -39499895#4 -39499895#3 -39499895#2 -39499895#1"/>
    </vehicle>
    <vehicle id="82" depart="164.00">
        <route edges="888754831 173830101 -61880997 22983743 305495770#0 305495770#1 -1377474667 -380554572#1 -380554572#0 -45396180#3 -45396180#2 -45396180#1 -45396180#0 -45396181 -26845634#8 -26845634#7 -26845634#6 -26845634#5 -26845634#4 26845634#4"/>
    </vehicle>
    <vehicle id="83" depart="166.00">
        <route edges="-65491175#2 65491175#2 65491175#3 65491175#4 141914118 27835213#0 27835213#1"/>
    </vehicle>
    <vehicle id="84" depart="168.00">
        <route edges="108589371#2 108589371#3 -23422452#4 -23422452#3 28442832#0 -27867380#1 -27867380#0"/>
    </vehicle>
    <vehicle id="86" depart="172.00">
        <route edges="-27834884#1 27837251#0 27837251#1 -27834527#0 -29459186 45396180#0 26845542#0 26845542#1 26845542#2 26845542#3 26845542#5 26845542#6 26845542#7 26845542#8 26845542#9 27834535#0 27834535#1 27834535#2 31959431#0 27779117#1 27779117#2 108589368 108589369#0 108589369#1 28366502#0 -28366502#0"/>
    </vehicle>
    <vehicle id="87" depart="174.00">
        <route edges="108589367 108589372 -108589372 -108589367 -972620128 -27779116#1 27834535#0 27834535#1 27834535#2 31959431#0 31959431#2 31959431#3 168747076 168747077#0 168747077#1 168747077#2 168747077#3 -491958947#3 -491958947#2 -491958947#1"/>
    </vehicle>
    <vehicle id="89" depart="178.00">
        <route edges="28442832#0 28442832#2 28442832#3 28442832#4 28442832#5 27761241#2 27761241#3 -27761242#4 27834519#0 27834519#1"/>
    </vehicle>
    <vehicle id="90" depart="180.00">
        <route edges="39499897 -29459186 45396180#0 45396180#1 45396180#2 45396180#3 380554572#0 380554572#1 1377474667 380554571#0 380554571#1 61880999 61880997 173830100 173830096 -173830089 -1137892630 -50289865#7 -50289865#6 -50289865#5 -27827904#4 -27827904#3 -27827903#1 -27827903#0 -26180375#2 26180376#0 26180376#1"/>
    </vehicle>
    <vehicle id="91" depart="182.00">
        <route edges="-27835104#1 -27835104#0 39499895#7 39499895#8 -31959431#2 27779117#1 27779117#2 108589368 108589369#0 108589369#1 28366502#0 28366502#1 28366502#2 27846458 23422452#9 23422452#10 39399257 -39499898 -892373619 -892373620 -39499899 -22733682 33119295#3 33119295#4 33119295#5 33119295#6 33119295#7 -65491182 -1408873047 -30134117 -11940927#2 -11940927#1"/>
    </vehicle>
    <vehicle id="92" depart="184.00">
        <route edges="-23419974#2 -23419974#1 -23419974#0 -1408873046 -972620123#2 -972620123#1 -972620123#0 -31400746 -914222967 -65489703 65489701 27835213#0 27835213#1 27835213#2 -62991368#1 491958947#0 491958947#1 491958947#2 491958947#3 29459185#0"/>
    </vehicle>
    <vehicle id="93" depart="186.00">
        <route edges="-23419974#10 -23419974#9 -23419974#8 -23419974#7 -23419974#6 -23419974#5 -23419974#4 -23419974#3 -23419974#2 -23419974#1 -23419974#0 -1408873046 -972620123#2 -972620123#1 -972620123#0 -31400746 -914222967 -65489703 65489701 27835213#0 27835213#1 27835213#2 28017050 -28912017#6 -28366502#5 28366502#5"/>
    </vehicle>
    <vehicle id="94" depart="188.00">
        <route edges="39499889 -26845542#1 -26845542#0 -45396180#0 -45396181 -26845634#8 -26845634#7 -26845634#6 27759955#0 27759955#1 -27834519#0 -27761242#3 -27827753"/>
    </vehicle>
    <vehicle id="95" depart="190.00">
        <route edges="-26845637 45396180#2 45396180#3 380554572#0 380554572#1 1377474667 380554571#0 380554571#1 61880999 61880997 173830100 173830096 -173830089 -1137892630 -50289865#7 -50289865#6 -50289865#5 -27827904#4 -27827904#3 -27827903#1 -27827903#0 27827903#0"/>
    </vehicle>
    <vehicle id="96" depart="192.00">
        <route edges="-27834530#0 380554572#1 1377474667 380554571#0 380554571#1 61880999 61880997 173830100 173830096 -173830089 -1137892630 -50289865#7 -50289865#6 -50289865#5 -50289865#4 -50289865#3 -50289865#2 -50289865#1 -50289865#0 -1185644577 141914121 65489702 65489703 914222967 31400746 972620123#0 972620123#1 972620123#2 1408873046 23419974#0 23419974#1 23419974#2 23419974#3 23419974#4 29204396#0 29204396#1 29204396#2 29204396#3 29204396#4 29204396#5"/>
    </vehicle>
    <vehicle id="97" depart="194.00">
        <route edges="-55687753#0 -23419974#12 -23419974#11 -23419974#10 -23419974#9 -23419974#8 -23419974#7 -23419974#6 -23419974#5 -23419974#4 -23419974#3 -23419974#2 -23419974#1 -23419974#0 -1408873046 -972620123#2 -972620123#1 -972620123#0 -31400746 -914222967 -65489703 65489701 1185644577 50289865#0 50289865#1 50289865#2 50289865#3 50289865#4 50289865#5 50289865#6 50289865#7 1137892630 173830089 1137892628 173830086 305495776 1137892624 1137892623 1137892627 1137892626 888754832 888754831 173830101 -61880997 22983743 305495770#0 305495770#1 380554571#0 27834533#0 27834533#1 27834533#2 -27834533#2 -27834533#1 -27834533#0"/>
    </vehicle>
    <vehicle id="98" depart="196.00">
        <route edges="41400366 -41400366 -41400365 -28763437 -28763438#1 -28763438#0 -23422304 -972620123#0 -31400746 -914222967 -65489703 65489701 27835213#0 27835213#1 27835213#2 -62991368#1 491958947#0 491958947#1 491958947#2 491958947#3 -168747077#3"/>
    </vehicle>
    <vehicle id="99" depart="198.00">
        <route edges="-26180376#1 -26180376#0 26180375#2 27827903#0 27827903#1 27827904#3 27827904#4 -50289865#4 -50289865#3 -50289865#2 -50289865#1 -50289865#0 -1185644577 141914121 65489702 65489703 914222967 31400746 972620123#0 972620123#1 972620123#2 1408873046 23419974#0 23419974#1 23419974#2 23419974#3 23419974#4 23419974#5 23419974#6 23419974#7 23419974#8 23419974#9 23419974#10 23419974#11 23419974#12 55687753#0 -55687753#0"/>
    </vehicle>
    <vehicle id="100" depart="200.00">
        <route edges="-1137892628 -173830089 -1137892630 -50289865#7 -29459185#5 -27834716 -27834534 26845542#9 27834535#0 27834535#1 27834535#2 27846449 108589377 108589371#0 108589371#1 108589371#2 108589371#3 -108589371#3 -108589371#2 -108589371#1 -108589371#0 -108589377 -27846449"/>
    </vehicle>
    <vehicle id="101" depart="202.00">
        <route edges="-23422452#10 -23422452#9 -23422452#8 -23422452#7 -23422452#6 -23422452#5 -23422452#4 -23422452#3 28442832#0 28442832#2 28442832#3 28442832#4 28442832#5 27761241#2 27761241#3 -27761242#4 27834519#0 -27759955#1"/>
    </vehicle>
    <vehicle id="102" depart="204.00">
        <route edges="1408873045 972620122#0 972620122#1 1408873043 1408873044 136888471#0 136888471#1 136888471#2 136888471#3 173767251 -173767251 -136888471#3 -136888471#2 -136888471#1 -136888471#0 -1408873044 -1408873043 -972620122#1 -972620122#0 -1408873045 -1408873046 -972620123#2 -972620123#1 -972620123#0 -31400746 -914222967 -65489703 65489701 27835213#0 27835213#1 27835213#2 -62991368#1 491958947#0 491958947#1 491958947#2 491958947#3 29459185#0 29459185#1 29459185#2 29459185#3"/>
    </vehicle>
    <vehicle id="103" depart="206.00">