<?xml version="1.0" encoding="UTF-8"?>

<!-- generated on 12/15/25 17:28:10 by Eclipse SUMO polyconvert Version 1.5.0
<configuration xmlns:xsi="http://www.w3.org/2001/XMLSchema-instance" xsi:noNamespaceSchemaLocation="http://sumo.dlr.de/xsd/polyconvertConfiguration.xsd">

    <input>
        <net-file value="lenting.net.xml"/>
        <osm-files value="lenting_raw.osm"/>
    </input>

    <output>
        <output-file value="lenting.poly.xml"/>
    </output>

    <processing>
        <poi-layer-offset value="5"/>
    </processing>

</configuration>
-->

<additional xmlns:xsi="http://www.w3.org/2001/XMLSchema-instance" xsi:noNamespaceSchemaLocation="http://sumo.dlr.de/xsd/additional_file.xsd">
    <location netOffset="-678336.91,-5407443.04" convBoundary="0.00,-1242.59,3738.25,5145.76" origBoundary="11.429172,48.782529,11.479956,48.840251" projParameter="+proj=utm +zone=32 +ellps=WGS84 +datum=WGS84 +units=m +no_defs"/>

    <poly id="107073429" type="building" color="255,230,230" fill="1" layer="-1.00" shape="2776.447750,1945.141142 2827.309797,1946.901684 2824.178247,2037.570036 2773.295004,2035.808789 2776.447750,1945.141142"/>
    <poly id="1112094017" type="building" color="255,230,230" fill="1" layer="-1.00" shape="1310.744004,2433.656490 1312.365255,2443.332912 1320.772120,2441.934376 1319.150883,2432.257951 1310.744004,2433.656490"/>
    <poly id="1112094018" type="building" color="255,230,230" fill="1" layer="-1.00" shape="1534.677963,2372.525677 1526.960021,2373.745811 1529.145289,2387.345828 1536.863213,2386.125697 1534.677963,2372.525677"/>
    <poly id="1112094019" type="building" color="255,230,230" fill="1" layer="-1.00" shape="1568.109771,2367.327153 1556.996979,2369.005344 1558.105785,2376.328819 1569.218564,2374.650631 1568.807131,2371.911421 1568.109771,2367.327153"/>
    <poly id="1112094020" type="building" color="255,230,230" fill="1" layer="-1.00" shape="1569.135036,2323.177416 1575.659074,2322.297175 1574.786604,2315.849164 1568.255576,2316.718056 1569.135036,2323.177416"/>
    <poly id="1112094021" type="building" color="255,230,230" fill="1" layer="-1.00" shape="1581.463012,2315.029469 1582.294474,2321.153495 1591.460720,2319.913329 1590.628910,2313.800416 1581.463012,2315.029469"/>
    <poly id="1112094022" type="building" color="255,230,230" fill="1" layer="-1.00" shape="1594.314858,2292.445283 1588.103916,2293.413475 1589.105103,2299.743245 1595.308698,2298.774817 1594.314858,2292.445283"/>
    <poly id="1112094023" type="building" color="255,230,230" fill="1" layer="-1.00" shape="1612.269150,2291.899928 1613.170767,2297.670178 1618.857672,2296.774141 1617.956060,2291.003890 1612.269150,2291.899928"/>
    <poly id="1112094024" type="building" color="255,230,230" fill="1" layer="-1.00" shape="1555.465555,2349.707426 1562.814011,2348.553312 1562.300519,2345.332383 1561.323307,2339.170286 1553.974481,2340.335517 1555.465555,2349.707426"/>
    <poly id="1112094025" type="building" color="255,230,230" fill="1" layer="-1.00" shape="1388.108595,2322.946083 1394.109447,2321.881902 1392.981829,2315.592616 1386.980971,2316.656799 1388.108595,2322.946083"/>
    <poly id="1112094026" type="building" color="255,230,230" fill="1" layer="-1.00" shape="1416.926734,2311.100412 1413.453112,2311.722962 1414.487413,2317.486312 1417.961032,2316.863763 1416.926734,2311.100412"/>
    <poly id="1112094027" type="building" color="255,230,230" fill="1" layer="-1.00" shape="1416.926734,2311.100412 1417.961032,2316.863763 1423.466868,2315.883819 1422.432575,2310.120467 1416.926734,2311.100412"/>
    <poly id="1112094028" type="building" color="255,230,230" fill="1" layer="-1.00" shape="1441.058957,2306.725601 1435.190922,2307.771756 1436.269431,2313.759060 1442.137460,2312.712907 1441.058957,2306.725601"/>
    <poly id="1112094029" type="building" color="255,230,230" fill="1" layer="-1.00" shape="1441.058957,2306.725601 1442.137460,2312.712907 1448.242175,2311.618747 1447.171020,2305.631676 1441.058957,2306.725601"/>
    <poly id="1112094030" type="building" color="255,230,230" fill="1" layer="-1.00" shape="1513.385405,2297.159951 1514.327418,2303.732576 1517.996389,2303.205389 1517.054380,2296.632763 1513.385405,2297.159951"/>
    <poly id="1112094031" type="building" color="255,230,230" fill="1" layer="-1.00" shape="1509.694410,2297.686432 1510.636785,2304.247942 1514.327418,2303.732576 1513.385405,2297.159951 1509.694410,2297.686432"/>
    <poly id="1112094032" type="building" color="255,230,230" fill="1" layer="-1.00" shape="1495.432424,2298.350991 1489.386580,2299.213344 1490.394694,2306.244272 1496.440530,2305.381921 1495.432424,2298.350991"/>
    <poly id="1112094033" type="building" color="255,230,230" fill="1" layer="-1.00" shape="1664.618681,2199.502185 1668.251213,2199.196445 1667.661705,2192.178964 1664.021828,2192.484469 1664.618681,2199.502185"/>
    <poly id="1112094034" type="building" color="255,230,230" fill="1" layer="-1.00" shape="1647.958985,2213.451865 1655.599473,2212.819085 1655.531265,2211.971284 1654.627558,2201.249728 1646.979356,2201.893388 1647.958985,2213.451865"/>
    <poly id="1112094035" type="building" color="255,230,230" fill="1" layer="-1.00" shape="1673.435423,2266.800417 1672.990592,2260.310536 1668.012275,2260.650785 1668.311219,2265.055333 1668.457112,2267.140666 1673.435423,2266.800417"/>
    <poly id="1112094036" type="building" color="255,230,230" fill="1" layer="-1.00" shape="1659.422490,2253.119581 1651.159543,2253.687789 1652.113523,2267.637611 1660.383790,2267.069641 1660.283901,2265.608868 1659.422490,2253.119581"/>
    <poly id="1112094037" type="building" color="255,230,230" fill="1" layer="-1.00" shape="2028.050211,2306.634749 2034.562667,2304.297104 2032.626796,2298.938420 2026.114335,2301.276067 2028.050211,2306.634749"/>
    <poly id="117421747" type="building" color="255,230,230" fill="1" layer="-1.00" shape="1902.589269,2603.064266 1901.461724,2597.475804 1897.926615,2598.185074 1899.054164,2603.773534 1902.589269,2603.064266"/>
    <poly id="117421749" type="building" color="255,230,230" fill="1" layer="-1.00" shape="2215.496951,2502.485526 2221.442537,2502.677733 2221.653459,2496.153336 2215.707866,2495.961128 2215.496951,2502.485526"/>
    <poly id="117421750" type="building" color="255,230,230" fill="1" layer="-1.00" shape="2772.911276,1621.268156 2776.894417,1621.497421 2777.594206,1609.659282 2773.611057,1609.430017 2772.911276,1621.268156"/>
    <poly id="117421756" type="building" color="255,230,230" fill="1" layer="-1.00" shape="2653.382117,2087.031647 2653.234670,2083.644422 2650.165996,2083.778650 2650.320786,2087.166113 2653.382117,2087.031647"/>
    <poly id="117421757" type="building" color="255,230,230" fill="1" layer="-1.00" shape="2146.078100,2344.093617 2147.112299,2352.338334 2151.745790,2351.753717 2150.704258,2343.508761 2146.078100,2344.093617"/>
    <poly id="117421759" type="building" color="255,230,230" fill="1" layer="-1.00" shape="1969.449890,2460.701532 1974.838862,2461.520837 1975.638058,2456.339481 1970.249081,2455.520175 1969.449890,2460.701532"/>
    <poly id="117421760" type="building" color="255,230,230" fill="1" layer="-1.00" shape="1957.973714,2553.303289 1963.595937,2550.536289 1962.168021,2547.652959 1956.546156,2550.408845 1957.973714,2553.303289"/>
    <poly id="117421762" type="building" color="255,230,230" fill="1" layer="-1.00" shape="1941.022004,2576.077025 1945.881181,2573.274253 1943.326560,2568.874746 1938.467740,2571.666406 1941.022004,2576.077025"/>
    <poly id="117421764" type="building" color="255,230,230" fill="1" layer="-1.00" shape="2197.617735,2409.791858 2202.644847,2409.531548 2202.518358,2407.079645 2197.483544,2407.350833 2197.617735,2409.791858"/>
    <poly id="117421765" type="building" color="255,230,230" fill="1" layer="-1.00" shape="2220.775551,2544.447055 2226.358193,2543.136595 2225.297779,2538.662865 2219.714773,2539.984441 2220.775551,2544.447055"/>
    <poly id="117421769" type="building" color="255,230,230" fill="1" layer="-1.00" shape="2168.038000,2362.394131 2170.988846,2362.489496 2171.212382,2356.254796 2168.261892,2356.148317 2168.038000,2362.394131"/>
    <poly id="117421770" type="building" color="255,230,230" fill="1" layer="-1.00" shape="1915.756964,2532.925604 1916.412534,2536.518336 1923.146069,2535.289227 1922.497843,2531.696731 1915.756964,2532.925604"/>
    <poly id="117421771" type="building" color="255,230,230" fill="1" layer="-1.00" shape="2202.013267,2451.802691 2207.565815,2451.425855 2207.241753,2446.675520 2201.689201,2447.052357 2202.013267,2451.802691"/>
    <poly id="117421775" type="building" color="255,230,230" fill="1" layer="-1.00" shape="2137.922909,2321.087700 2143.113084,2318.284650 2140.241849,2312.995836 2135.044330,2315.798651 2137.922909,2321.087700"/>
    <poly id="117421778" type="building" color="255,230,230" fill="1" layer="-1.00" shape="2147.904799,2391.484443 2147.381095,2397.231007 2153.608194,2397.810531 2154.139244,2392.064205 2147.904799,2391.484443"/>
    <poly id="117421779" type="building" color="255,230,230" fill="1" layer="-1.00" shape="2234.526965,2412.742978 2243.452463,2414.633750 2244.888373,2407.948683 2235.955883,2406.046556 2234.526965,2412.742978"/>
    <poly id="117421790" type="building" color="255,230,230" fill="1" layer="-1.00" shape="2118.317030,2502.382326 2123.578177,2502.607947 2123.802457,2497.485913 2118.541306,2497.260292 2118.317030,2502.382326"/>
    <poly id="117421797" type="building" color="255,230,230" fill="1" layer="-1.00" shape="2148.470436,2385.349809 2147.904799,2391.484443 2154.139244,2392.064205 2154.705247,2385.918457 2148.470436,2385.349809"/>
    <poly id="117421799" type="building" color="255,230,230" fill="1" layer="-1.00" shape="2753.366369,1602.787718 2757.556748,1602.745525 2757.448357,1592.939587 2753.257970,1592.981781 2753.366369,1602.787718"/>
    <poly id="117421804" type="building" color="255,230,230" fill="1" layer="-1.00" shape="1909.108621,2583.425167 1914.448276,2580.760265 1911.997500,2575.874564 1906.658200,2578.528353 1909.108621,2583.425167"/>
    <poly id="117421809" type="building" color="255,230,230" fill="1" layer="-1.00" shape="1843.587113,1762.019709 1838.544816,1755.670818 1842.835598,1752.282145 1835.597281,1743.158721 1829.142575,1748.246704 1827.454699,1746.122764 1812.766203,1757.687812 1813.761885,1758.943821 1806.923139,1764.319855 1815.834301,1775.577820 1822.258166,1770.533335 1825.449487,1774.574990 1818.618446,1779.940132 1822.078691,1784.301996 1847.216620,1764.551197 1859.071737,1779.542515 1904.228209,1744.070808 1929.921789,1776.576657 1912.341693,1790.295673 1918.272279,1797.808191 1935.468835,1784.132449 1938.794529,1788.334280 1949.215134,1780.136628 1945.614255,1775.580993 1949.490208,1772.523930 1952.295379,1770.311298 1949.124373,1766.325853 1942.752486,1771.349624 1908.652102,1728.358448 1900.044157,1717.499536 1843.587113,1762.019709"/>
    <poly id="117421814" type="building" color="255,230,230" fill="1" layer="-1.00" shape="1971.971551,2574.461422 1976.966424,2572.007975 1975.373124,2568.785509 1970.378248,2571.238958 1971.971551,2574.461422"/>
    <poly id="117553943" type="building" color="255,230,230" fill="1" layer="-1.00" shape="3163.709570,1478.290711 3165.838160,1475.433587 3163.206978,1473.400969 3162.139192,1474.823854 3161.078388,1476.258094 3163.709570,1478.290711"/>
    <poly id="1183927515" type="building" color="255,230,230" fill="1" layer="-1.00" shape="2019.450987,561.194271 2030.212062,558.459562 2028.481815,551.716771 2017.720370,554.462598 2019.450987,561.194271"/>
    <poly id="1235566337" type="building" color="255,230,230" fill="1" layer="-1.00" shape="2593.413888,1576.420495 2607.240571,1578.826551 2605.212202,1590.399131 2591.385548,1587.993080 2593.413888,1576.420495"/>
    <poly id="1235566338" type="building" color="255,230,230" fill="1" layer="-1.00" shape="2618.563873,1581.830271 2632.390175,1584.247505 2630.361755,1595.820077 2616.542462,1593.414201 2618.563873,1581.830271"/>
    <poly id="1235566339" type="building" color="255,230,230" fill="1" layer="-1.00" shape="2644.554419,1586.699943 2658.381062,1589.106127 2656.352589,1600.678691 2642.525974,1598.272512 2644.554419,1586.699943"/>
    <poly id="1235566340" type="building" color="255,230,230" fill="1" layer="-1.00" shape="2644.449155,1606.056577 2658.275389,1608.473877 2656.246919,1620.046441 2642.420714,1617.629146 2644.449155,1606.056577"/>
    <poly id="1235566341" type="building" color="255,230,230" fill="1" layer="-1.00" shape="2619.079777,1600.617318 2632.906032,1603.034554 2630.877614,1614.607126 2617.051388,1612.189894 2619.079777,1600.617318"/>
    <poly id="1235566342" type="building" color="255,230,230" fill="1" layer="-1.00" shape="2592.584597,1595.219602 2606.411233,1597.625657 2604.382869,1609.198237 2590.563603,1606.792424 2592.584597,1595.219602"/>
    <poly id="127076926" type="building" color="255,230,230" fill="1" layer="-1.00" shape="1194.940298,1351.015157 1225.060632,1343.148813 1219.094933,1320.448594 1188.974490,1328.314973 1194.940298,1351.015157"/>
    <poly id="1338013041" type="building" color="255,230,230" fill="1" layer="-1.00" shape="2228.578908,967.218007 2221.501192,958.566618 2235.043153,947.544015 2242.128566,956.184544 2228.578908,967.218007"/>
    <poly id="1344801476" type="building" color="255,230,230" fill="1" layer="-1.00" shape="3380.973591,1646.109390 3382.488987,1641.997353 3386.555700,1643.498199 3385.040302,1647.610235 3380.973591,1646.109390"/>
    <poly id="1358661347" type="building" color="255,230,230" fill="1" layer="-1.00" shape="2980.115211,2281.159634 2943.021178,2281.157282 2943.021808,2301.741346 2980.116066,2301.732588 2980.115211,2281.159634"/>
    <poly id="1373292977" type="building" color="255,230,230" fill="1" layer="-1.00" shape="2191.781801,1164.557417 2201.617238,1158.366256 2206.693614,1166.396649 2196.618213,1172.735816 2198.338149,1175.461725 2192.936652,1178.858777 2189.307520,1173.122689 2194.949350,1169.566502 2191.781801,1164.557417"/>
    <poly id="1436620681" type="building" color="255,230,230" fill="1" layer="-1.00" shape="1910.696580,1820.328333 1893.350586,1824.063462 1896.402251,1838.125528 1913.748564,1834.379294 1910.696580,1820.328333"/>
    <poly id="1436620682" type="building" color="255,230,230" fill="1" layer="-1.00" shape="1862.883530,1675.266681 1875.268640,1671.783080 1872.557191,1662.204816 1860.172062,1665.688423 1862.883530,1675.266681"/>
    <poly id="147934700" type="building" color="255,230,230" fill="1" layer="-1.00" shape="2219.494278,992.470671 2213.263215,984.458600 2222.090457,977.634057 2228.328859,985.646375 2219.494278,992.470671"/>
    <poly id="147934700#1" type="shop" color="237,199,255" fill="1" layer="-1.00" shape="2219.494278,992.470671 2213.263215,984.458600 2222.090457,977.634057 2228.328859,985.646375 2219.494278,992.470671"/>
    <poly id="165801101" type="building" color="255,230,230" fill="1" layer="-1.00" shape="1329.834620,2229.868775 1334.215292,2229.375485 1337.813931,2228.979432 1337.144936,2223.049832 1329.172957,2223.939413 1329.834620,2229.868775"/>
    <poly id="165803515" type="building" color="255,230,230" fill="1" layer="-1.00" shape="1362.817683,2221.961983 1356.602406,2222.607631 1357.394634,2230.187896 1360.771628,2229.829232 1363.609902,2229.542249 1362.817683,2221.961983"/>
    <poly id="165803516" type="building" color="255,230,230" fill="1" layer="-1.00" shape="1389.198594,2226.727237 1395.421212,2226.081861 1394.607541,2218.256119 1388.384914,2218.901496 1389.198594,2226.727237"/>
    <poly id="165803517" type="building" color="255,230,230" fill="1" layer="-1.00" shape="1389.198594,2226.727237 1382.755046,2227.387763 1381.941357,2219.562023 1388.384914,2218.901496 1389.198594,2226.727237"/>
    <poly id="165804401" type="building" color="255,230,230" fill="1" layer="-1.00" shape="1438.647554,2212.474647 1439.305397,2220.117362 1432.762283,2220.674490 1432.104431,2213.031776 1438.647554,2212.474647"/>
    <poly id="165804402" type="building" color="255,230,230" fill="1" layer="-1.00" shape="1432.762283,2220.674490 1427.162341,2221.150717 1425.754926,2221.272317 1425.097065,2213.629604 1432.104431,2213.031776 1432.762283,2220.674490"/>
    <poly id="165805396" type="building" color="255,230,230" fill="1" layer="-1.00" shape="1449.074020,2217.972858 1452.172804,2217.583041 1451.334179,2210.991507 1448.235391,2211.381324 1449.074020,2217.972858"/>
    <poly id="165805397" type="building" color="255,230,230" fill="1" layer="-1.00" shape="1474.193088,2217.424013 1468.082529,2218.239804 1467.521134,2213.993722 1473.624358,2213.177694 1474.193088,2217.424013"/>
    <poly id="165805398" type="building" color="255,230,230" fill="1" layer="-1.00" shape="1514.100839,2243.220197 1519.879982,2242.427165 1519.122744,2236.961997 1513.343595,2237.755031 1514.100839,2243.220197"/>
    <poly id="165805399" type="building" color="255,230,230" fill="1" layer="-1.00" shape="1360.771628,2229.829232 1361.232309,2234.238953 1364.070581,2233.951971 1363.609902,2229.542249 1360.771628,2229.829232"/>
    <poly id="165805400" type="building" color="255,230,230" fill="1" layer="-1.00" shape="1476.057769,2217.250387 1482.406092,2216.353248 1481.620881,2210.842682 1475.272909,2211.728708 1476.057769,2217.250387"/>
    <poly id="165805401" type="building" color="255,230,230" fill="1" layer="-1.00" shape="1455.404435,2217.175249 1461.616688,2216.396096 1461.217707,2213.267878 1455.005451,2214.047031 1455.404435,2217.175249"/>
    <poly id="165805402" type="building" color="255,230,230" fill="1" layer="-1.00" shape="1334.215292,2229.375485 1335.042988,2236.767738 1338.648963,2236.371922 1337.813931,2228.979432 1334.215292,2229.375485"/>
    <poly id="165805403" type="building" color="255,230,230" fill="1" layer="-1.00" shape="1461.217707,2213.267878 1460.778074,2209.804561 1454.565814,2210.583714 1455.005451,2214.047031 1461.217707,2213.267878"/>
    <poly id="165805404" type="building" color="255,230,230" fill="1" layer="-1.00" shape="1427.162341,2221.150717 1427.789390,2228.380764 1433.381984,2227.904302 1432.762283,2220.674490 1427.162341,2221.150717"/>
    <poly id="165805405" type="building" color="255,230,230" fill="1" layer="-1.00" shape="1482.195210,2217.425714 1477.948256,2218.101216 1478.585010,2222.060441 1482.831961,2221.384939 1482.195210,2217.425714"/>
    <poly id="165805406" type="building" color="255,230,230" fill="1" layer="-1.00" shape="1452.172804,2217.583041 1455.404435,2217.175249 1455.005451,2214.047031 1454.565814,2210.583714 1451.334179,2210.991507 1452.172804,2217.583041"/>
    <poly id="165806734" type="building" color="255,230,230" fill="1" layer="-1.00" shape="1326.670938,2285.276259 1327.475780,2290.409132 1321.545624,2291.331018 1320.740777,2286.198146 1326.670938,2285.276259"/>
    <poly id="165984311" type="building" color="255,230,230" fill="1" layer="-1.00" shape="1413.396630,2288.133309 1416.804575,2287.953698 1416.326965,2279.048383 1412.911674,2279.227758 1413.396630,2288.133309"/>
    <poly id="165984312" type="building" color="255,230,230" fill="1" layer="-1.00" shape="1391.451152,2289.173947 1395.139106,2288.969954 1394.690313,2280.766530 1391.010052,2280.959645 1391.451152,2289.173947"/>
    <poly id="165984313" type="building" color="255,230,230" fill="1" layer="-1.00" shape="1349.154123,2301.554108 1353.783939,2300.623798 1352.673853,2295.158436 1348.051373,2296.088983 1349.154123,2301.554108"/>
    <poly id="165984314" type="building" color="255,230,230" fill="1" layer="-1.00" shape="1490.306776,2279.304557 1485.735444,2279.557933 1484.971561,2266.081589 1489.543262,2265.817098 1490.219194,2277.688417 1490.306776,2279.304557"/>
    <poly id="165984315" type="building" color="255,230,230" fill="1" layer="-1.00" shape="1355.978064,2301.628997 1359.766459,2301.728624 1359.898200,2296.948540 1359.949147,2295.136587 1356.153406,2295.036724 1355.978064,2301.628997"/>
    <poly id="165984316" type="building" color="255,230,230" fill="1" layer="-1.00" shape="1359.766459,2301.728624 1359.732677,2303.007065 1363.146351,2303.105765 1363.312235,2297.036124 1359.898200,2296.948540 1359.766459,2301.728624"/>
    <poly id="165984317" type="building" color="255,230,230" fill="1" layer="-1.00" shape="1395.139106,2288.969954 1398.790001,2288.775898 1398.300900,2279.770080 1394.650000,2279.964137 1394.690313,2280.766530 1395.139106,2288.969954"/>
    <poly id="165984319" type="building" color="255,230,230" fill="1" layer="-1.00" shape="1501.105822,2275.279591 1501.221340,2277.397316 1506.977717,2277.081972 1506.541984,2269.390763 1502.905393,2269.596337 1503.218630,2275.158470 1501.105822,2275.279591"/>
    <poly id="165984541" type="building" color="255,230,230" fill="1" layer="-1.00" shape="1498.230222,2252.077584 1502.362394,2251.543045 1501.703797,2246.437100 1497.571980,2246.960524 1498.230222,2252.077584"/>
    <poly id="165984542" type="building" color="255,230,230" fill="1" layer="-1.00" shape="1437.493277,2258.611804 1431.534775,2259.499284 1430.487725,2252.533877 1436.446235,2251.646395 1437.493277,2258.611804"/>
    <poly id="168747063" type="building" color="255,230,230" fill="1" layer="-1.00" shape="2096.157310,1523.165507 2103.838126,1542.250565 2091.500981,1547.192792 2083.812791,1528.107514 2096.157310,1523.165507"/>
    <poly id="168747064" type="building" color="255,230,230" fill="1" layer="-1.00" shape="1923.994942,1637.761805 1933.846165,1622.847658 1925.404364,1617.312488 1915.553514,1632.215534 1923.994942,1637.761805"/>
    <poly id="168747065" type="building" color="255,230,230" fill="1" layer="-1.00" shape="2091.537648,1497.358840 2088.460288,1487.512734 2079.780418,1459.761362 2068.080500,1463.400185 2079.344773,1499.424020 2091.537648,1497.358840"/>
    <poly id="168747066" type="building" color="255,230,230" fill="1" layer="-1.00" shape="2184.787871,1676.246275 2191.416362,1670.797124 2197.469221,1678.158132 2188.630467,1685.371711 2182.722119,1677.859612 2184.787871,1676.246275"/>
    <poly id="168747067" type="building" color="255,230,230" fill="1" layer="-1.00" shape="2079.532315,1625.837077 2090.308484,1617.795787 2084.925802,1610.612320 2079.082071,1614.974298 2074.142287,1618.653383 2079.532315,1625.837077"/>
    <poly id="168747068" type="building" color="255,230,230" fill="1" layer="-1.00" shape="2236.378909,1639.149154 2236.521287,1651.114654 2249.313199,1650.971812 2249.171207,1638.995196 2236.378909,1639.149154"/>
    <poly id="168747069" type="building" color="255,230,230" fill="1" layer="-1.00" shape="2128.593114,1612.456646 2122.618208,1604.497415 2114.929485,1610.235068 2120.904394,1618.194291 2128.593114,1612.456646"/>
    <poly id="168747070" type="building" color="255,230,230" fill="1" layer="-1.00" shape="1608.855861,1772.144721 1605.719048,1773.935160 1599.183834,1777.652261 1591.809592,1764.752962 1601.481632,1759.245409 1608.855861,1772.144721"/>
    <poly id="168747071" type="building" color="255,230,230" fill="1" layer="-1.00" shape="1618.549931,1766.637907 1608.855861,1772.144721 1601.481632,1759.245409 1611.175715,1753.738582 1615.162387,1760.698578 1618.549931,1766.637907"/>
    <poly id="168747072" type="building" color="255,230,230" fill="1" layer="-1.00" shape="1716.237388,1702.571220 1720.213374,1712.824354 1731.094784,1708.335112 1724.241646,1691.814105 1713.591372,1696.199548 1716.237388,1702.571220"/>
    <poly id="168747073" type="building" color="255,230,230" fill="1" layer="-1.00" shape="2088.460288,1487.512734 2091.537648,1497.358840 2112.205550,1490.927701 2109.127862,1481.092698 2088.460288,1487.512734"/>
    <poly id="168747074" type="building" color="255,230,230" fill="1" layer="-1.00" shape="2102.425820,1510.205428 2106.052029,1519.212537 2123.347994,1512.283114 2119.721806,1503.275993 2102.425820,1510.205428"/>
    <poly id="168747075" type="building" color="255,230,230" fill="1" layer="-1.00" shape="2154.013951,1568.994766 2153.780267,1575.318142 2140.201784,1575.235527 2140.256020,1566.959234 2154.025041,1567.059130 2154.013951,1568.994766"/>
    <poly id="168747087" type="building" color="255,230,230" fill="1" layer="-1.00" shape="1937.105264,1722.945632 1941.980946,1719.197609 1939.568156,1716.082245 1934.692474,1719.830271 1937.105264,1722.945632"/>
    <poly id="169329993" type="building" color="255,230,230" fill="1" layer="-1.00" shape="2036.182327,2333.100047 2044.064424,2330.216945 2042.487179,2324.903217 2034.301605,2327.854406 2036.182327,2333.100047"/>
    <poly id="169329994" type="building" color="255,230,230" fill="1" layer="-1.00" shape="2029.398787,2310.383391 2035.911239,2308.045747 2034.562667,2304.297104 2028.050211,2306.634749 2029.398787,2310.383391"/>
    <poly id="169329995" type="building" color="255,230,230" fill="1" layer="-1.00" shape="1698.214185,2437.977156 1694.950745,2430.940234 1689.035661,2433.675809 1690.052882,2435.855987 1692.299464,2440.701614 1698.214185,2437.977156"/>
    <poly id="169329996" type="building" color="255,230,230" fill="1" layer="-1.00" shape="2021.482710,2302.940112 2026.114335,2301.276067 2032.626796,2298.938420 2033.793969,2298.519928 2030.805220,2290.267758 2018.501645,2294.677071 2021.482710,2302.940112"/>
    <poly id="169329997" type="building" color="255,230,230" fill="1" layer="-1.00" shape="2154.211505,2271.355988 2156.335724,2270.200724 2162.319496,2266.944898 2163.089939,2266.524738 2157.587474,2256.477791 2148.709031,2261.309050 2154.211505,2271.355988"/>
    <poly id="169329998" type="building" color="255,230,230" fill="1" layer="-1.00" shape="1880.858510,2608.638295 1890.469287,2607.045814 1890.210501,2605.502020 1889.108602,2598.890760 1888.807401,2597.067438 1879.189268,2598.659685 1880.858510,2608.638295"/>
    <poly id="169330000" type="building" color="255,230,230" fill="1" layer="-1.00" shape="1909.041456,2638.098129 1902.804851,2639.187516 1900.930359,2628.512436 1907.166975,2627.423047 1909.041456,2638.098129"/>
    <poly id="169330001" type="building" color="255,230,230" fill="1" layer="-1.00" shape="1915.278063,2637.008749 1909.041456,2638.098129 1907.166975,2627.423047 1913.403594,2626.333665 1915.278063,2637.008749"/>
    <poly id="169330002" type="building" color="255,230,230" fill="1" layer="-1.00" shape="1921.514673,2635.919376 1915.278063,2637.008749 1913.403594,2626.333665 1919.647555,2625.244526 1921.514673,2635.919376"/>
    <poly id="169330004" type="building" color="255,230,230" fill="1" layer="-1.00" shape="1963.160043,2627.995381 1956.423018,2629.335588 1954.257173,2618.584321 1961.009608,2617.222355 1963.160043,2627.995381"/>
    <poly id="169330007" type="building" color="255,230,230" fill="1" layer="-1.00" shape="1969.904412,2626.655419 1963.160043,2627.995381 1961.009608,2617.222355 1967.746648,2615.882153 1969.904412,2626.655419"/>
    <poly id="169330008" type="building" color="255,230,230" fill="1" layer="-1.00" shape="1985.712586,2624.506590 1978.605676,2625.923839 1976.326410,2614.590326 1983.433333,2613.173073 1985.712586,2624.506590"/>
    <poly id="169330011" type="building" color="255,230,230" fill="1" layer="-1.00" shape="1992.812159,2623.089112 1985.712586,2624.506590 1983.433333,2613.173073 1990.540260,2611.755830 1992.812159,2623.089112"/>
    <poly id="169330014" type="building" color="255,230,230" fill="1" layer="-1.00" shape="2129.313727,2561.830073 2125.554973,2569.686265 2116.183446,2565.233306 2119.942189,2557.377108 2129.313727,2561.830073"/>
    <poly id="169330016" type="building" color="255,230,230" fill="1" layer="-1.00" shape="2137.721517,2541.306467 2136.453860,2551.657585 2124.230984,2550.172244 2125.498978,2539.810009 2137.721517,2541.306467"/>
    <poly id="169330018" type="building" color="255,230,230" fill="1" layer="-1.00" shape="2141.003328,2512.283536 2140.577787,2522.951153 2129.863609,2522.527060 2130.281430,2511.870320 2141.003328,2512.283536"/>
    <poly id="169330019" type="building" color="255,230,230" fill="1" layer="-1.00" shape="2141.394433,2502.226761 2141.003328,2512.283536 2130.281430,2511.870320 2130.680215,2501.802667 2141.394433,2502.226761"/>
    <poly id="169330020" type="building" color="255,230,230" fill="1" layer="-1.00" shape="1938.621660,2407.089652 1940.945361,2397.929742 1950.238662,2400.265841 1947.929627,2409.426221 1938.621660,2407.089652"/>
    <poly id="169337421" type="building" color="255,230,230" fill="1" layer="-1.00" shape="2367.873142,1440.176646 2374.399983,1437.884306 2372.999468,1433.922504 2366.472623,1436.214846 2367.873142,1440.176646"/>
    <poly id="169337422" type="building" color="255,230,230" fill="1" layer="-1.00" shape="2036.882555,1642.328899 2028.728494,1647.005757 2024.315933,1639.364110 2032.462659,1634.687008 2036.882555,1642.328899"/>
    <poly id="169337423" type="building" color="255,230,230" fill="1" layer="-1.00" shape="2386.876202,1437.520137 2384.226277,1429.924081 2378.473379,1431.918778 2381.123310,1439.514831 2386.876202,1437.520137"/>
    <poly id="169337424" type="building" color="255,230,230" fill="1" layer="-1.00" shape="2108.529921,1562.407368 2108.648191,1558.973130 2108.455302,1557.208929 2104.800687,1557.046386 2104.617281,1562.269871 2108.529921,1562.407368"/>
    <poly id="169337425" type="building" color="255,230,230" fill="1" layer="-1.00" shape="2295.310738,1444.806450 2289.320300,1423.461457 2278.808310,1426.492925 2284.312016,1445.162955 2285.875189,1450.687689 2295.310738,1444.806450"/>
    <poly id="169337426" type="building" color="255,230,230" fill="1" layer="-1.00" shape="2274.437993,1485.978114 2261.575614,1485.106138 2262.057327,1477.934045 2274.927064,1478.806259 2274.718129,1481.859269 2274.437993,1485.978114"/>
    <poly id="169337427" type="building" color="255,230,230" fill="1" layer="-1.00" shape="2199.272128,1506.836278 2192.618548,1496.907922 2206.112707,1487.552733 2212.946784,1497.353421 2202.655197,1504.486664 2199.272128,1506.836278"/>