<?xml version="1.0" encoding="UTF-8"?>

<!-- generated on 12/15/25 17:27:23 by Eclipse SUMO netconvert Version 1.5.0
<configuration xmlns:xsi="http://www.w3.org/2001/XMLSchema-instance" xsi:noNamespaceSchemaLocation="http://sumo.dlr.de/xsd/netconvertConfiguration.xsd">

    <input>
        <osm-files value="lenting_raw.osm"/>
    </input>

    <output>
        <output-file value="lenting.net.xml"/>
    </output>

    <projection>
        <proj.utm value="true"/>
    </projection>

    <tls_building>
        <tls.discard-simple value="true"/>
    </tls_building>

    <edge_removal>
        <keep-edges.by-vclass value="passenger"/>
        <remove-edges.isolated value="true"/>
    </edge_removal>

    <junctions>
        <no-turnarounds.tls value="true"/>
        <junctions.join value="true"/>
    </junctions>

    <report>
        <aggregate-warnings value="5"/>
    </report>

</configuration>
-->

<net version="1.3" junctionCornerDetail="5" limitTurnSpeed="5.50" xmlns:xsi="http://www.w3.org/2001/XMLSchema-instance" xsi:noNamespaceSchemaLocation="http://sumo.dlr.de/xsd/net_file.xsd">

    <location netOffset="-678336.91,-5407443.04" convBoundary="0.00,0.00,3669.28,5145.76" origBoundary="11.429172,48.782529,11.479956,48.840251" projParameter="+proj=utm +zone=32 +ellps=WGS84 +datum=WGS84 +units=m +no_defs"/>

    <type id="highway.bridleway" priority="1" numLanes="1" speed="2.78" allow="pedestrian" oneway="1" width="2.00"/>
    <type id="highway.bus_guideway" priority="1" numLanes="1" speed="27.78" allow="bus" oneway="1"/>
    <type id="highway.cycleway" priority="1" numLanes="1" speed="8.33" allow="bicycle" oneway="0" width="1.00"/>
    <type id="highway.footway" priority="1" numLanes="1" speed="2.78" allow="pedestrian" oneway="1" width="2.00"/>
    <type id="highway.ford" priority="1" numLanes="1" speed="2.78" allow="army" oneway="0"/>
    <type id="highway.living_street" priority="2" numLanes="1" speed="2.78" disallow="tram rail_urban rail rail_electric rail_fast ship" oneway="0"/>
    <type id="highway.motorway" priority="14" numLanes="2" speed="39.44" allow="private emergency authority army vip passenger hov taxi bus coach delivery truck trailer motorcycle evehicle custom1 custom2" oneway="1"/>
    <type id="highway.motorway_link" priority="9" numLanes="1" speed="22.22" allow="private emergency authority army vip passenger hov taxi bus coach delivery truck trailer motorcycle evehicle custom1 custom2" oneway="1"/>
    <type id="highway.path" priority="1" numLanes="1" speed="2.78" allow="pedestrian bicycle" oneway="1" width="2.00"/>
    <type id="highway.pedestrian" priority="1" numLanes="1" speed="2.78" allow="pedestrian" oneway="1" width="2.00"/>
    <type id="highway.primary" priority="12" numLanes="2" speed="27.78" disallow="tram rail_urban rail rail_electric rail_fast ship" oneway="0"/>
    <type id="highway.primary_link" priority="7" numLanes="1" speed="22.22" disallow="tram rail_urban rail rail_electric rail_fast ship" oneway="0"/>
    <type id="highway.raceway" priority="15" numLanes="2" speed="83.33" allow="vip" oneway="0"/>
    <type id="highway.residential" priority="3" numLanes="1" speed="13.89" disallow="tram rail_urban rail rail_electric rail_fast ship" oneway="0"/>
    <type id="highway.secondary" priority="11" numLanes="1" speed="27.78" disallow="tram rail_urban rail rail_electric rail_fast ship" oneway="0"/>
    <type id="highway.secondary_link" priority="6" numLanes="1" speed="22.22" disallow="tram rail_urban rail rail_electric rail_fast ship" oneway="0"/>
    <type id="highway.service" priority="1" numLanes="1" speed="5.56" allow="pedestrian delivery bicycle" oneway="0"/>
    <type id="highway.stairs" priority="1" numLanes="1" speed="1.39" allow="pedestrian" oneway="1" width="2.00"/>
    <type id="highway.step" priority="1" numLanes="1" speed="1.39" allow="pedestrian" oneway="1" width="2.00"/>
    <type id="highway.steps" priority="1" numLanes="1" speed="1.39" allow="pedestrian" oneway="1" width="2.00"/>
    <type id="highway.tertiary" priority="10" numLanes="1" speed="22.22" disallow="tram rail_urban rail rail_electric rail_fast ship" oneway="0"/>
    <type id="highway.tertiary_link" priority="5" numLanes="1" speed="22.22" disallow="tram rail_urban rail rail_electric rail_fast ship" oneway="0"/>
    <type id="highway.track" priority="1" numLanes="1" speed="5.56" disallow="tram rail_urban rail rail_electric rail_fast ship" oneway="0"/>
    <type id="highway.trunk" priority="13" numLanes="2" speed="27.78" disallow="pedestrian bicycle tram rail_urban rail rail_electric rail_fast ship" oneway="0"/>
    <type id="highway.trunk_link" priority="8" numLanes="1" speed="22.22" disallow="pedestrian bicycle tram rail_urban rail rail_electric rail_fast ship" oneway="0"/>
    <type id="highway.unclassified" priority="4" numLanes="1" speed="13.89" disallow="tram rail_urban rail rail_electric rail_fast ship" oneway="0"/>
    <type id="highway.unsurfaced" priority="1" numLanes="1" speed="8.33" disallow="tram rail_urban rail rail_electric rail_fast ship" oneway="0"/>
    <type id="railway.highspeed" priority="21" numLanes="1" speed="69.44" allow="rail_fast" oneway="1"/>
    <type id="railway.light_rail" priority="19" numLanes="1" speed="27.78" allow="rail_urban" oneway="1"/>
    <type id="railway.preserved" priority="16" numLanes="1" speed="27.78" allow="rail" oneway="1"/>
    <type id="railway.rail" priority="20" numLanes="1" speed="44.44" allow="rail" oneway="1"/>
    <type id="railway.subway" priority="18" numLanes="1" speed="27.78" allow="rail_urban" oneway="1"/>
    <type id="railway.tram" priority="17" numLanes="1" speed="13.89" allow="tram" oneway="1"/>

    <edge id=":10174148120_0" function="internal">
        <lane id=":10174148120_0_0" index="0" disallow="tram rail_urban rail rail_electric rail_fast ship" speed="8.33" length="0.30" shape="1764.59,2245.32 1764.55,2245.02"/>
    </edge>
    <edge id=":10174148120_1" function="internal">
        <lane id=":10174148120_1_0" index="0" disallow="tram rail_urban rail rail_electric rail_fast ship" speed="8.33" length="0.30" shape="1767.71,2244.55 1767.76,2244.85"/>
    </edge>
    <edge id=":1031066609_0" function="internal">
        <lane id=":1031066609_0_0" index="0" disallow="tram rail_urban rail rail_electric rail_fast ship" speed="8.33" length="0.17" shape="2524.55,1905.88 2524.50,1905.88 2524.46,1905.88 2524.43,1905.88 2524.38,1905.89"/>
    </edge>
    <edge id=":1031066609_1" function="internal">
        <lane id=":1031066609_1_0" index="0" disallow="tram rail_urban rail rail_electric rail_fast ship" speed="8.33" length="0.50" shape="2524.06,1902.70 2524.21,1902.69 2524.31,1902.68 2524.41,1902.68 2524.56,1902.68"/>
    </edge>
    <edge id=":1054885010_0" function="internal">
        <lane id=":1054885010_0_0" index="0" disallow="tram rail_urban rail rail_electric rail_fast ship" speed="13.89" length="0.31" shape="3030.19,1826.19 3030.18,1825.88"/>
    </edge>
    <edge id=":1054885010_1" function="internal">
        <lane id=":1054885010_1_0" index="0" disallow="tram rail_urban rail rail_electric rail_fast ship" speed="13.89" length="0.27" shape="3033.38,1825.80 3033.39,1826.07"/>
    </edge>
    <edge id=":1054885249_0" function="internal">
        <lane id=":1054885249_0_0" index="0" disallow="tram rail_urban rail rail_electric rail_fast ship" speed="8.33" length="0.30" shape="2023.61,1829.87 2023.31,1829.86"/>
    </edge>
    <edge id=":1054885249_1" function="internal">
        <lane id=":1054885249_1_0" index="0" disallow="tram rail_urban rail rail_electric rail_fast ship" speed="8.33" length="0.30" shape="2023.43,1826.66 2023.73,1826.67"/>
    </edge>
    <edge id=":1054885603_0" function="internal">
        <lane id=":1054885603_0_0" index="0" disallow="tram rail_urban rail rail_electric rail_fast ship" speed="8.33" length="0.66" shape="2077.53,1590.14 2078.04,1589.71"/>
    </edge>
    <edge id=":1054885603_1" function="internal">
        <lane id=":1054885603_1_0" index="0" disallow="tram rail_urban rail rail_electric rail_fast ship" speed="8.33" length="0.79" shape="2076.09,1587.17 2075.48,1587.68"/>
    </edge>
    <edge id=":1054885640_0" function="internal">
        <lane id=":1054885640_0_0" index="0" disallow="tram rail_urban rail rail_electric rail_fast ship" speed="8.33" length="1.11" shape="2115.72,1578.22 2115.42,1578.08 2115.22,1577.97 2115.04,1577.84 2114.78,1577.63"/>
    </edge>
    <edge id=":1054885640_1" function="internal">
        <lane id=":1054885640_1_0" index="0" disallow="tram rail_urban rail rail_electric rail_fast ship" speed="8.33" length="0.37" shape="2116.78,1575.14 2116.87,1575.20 2116.93,1575.25 2117.00,1575.28 2117.09,1575.33"/>
    </edge>
    <edge id=":10978881339_0" function="internal">
        <lane id=":10978881339_0_0" index="0" disallow="tram rail_urban rail rail_electric rail_fast ship" speed="27.78" length="0.10" shape="2278.46,2425.80 2278.46,2425.80"/>
    </edge>
    <edge id=":10978881339_1" function="internal">
        <lane id=":10978881339_1_0" index="0" disallow="tram rail_urban rail rail_electric rail_fast ship" speed="27.78" length="0.10" shape="2281.58,2425.09 2281.58,2425.09"/>
    </edge>
    <edge id=":10994655347_0" function="internal">
        <lane id=":10994655347_0_0" index="0" disallow="tram rail_urban rail rail_electric rail_fast ship" speed="13.89" length="0.30" shape="2884.04,1788.02 2883.76,1788.13"/>
    </edge>
    <edge id=":10994655347_1" function="internal">
        <lane id=":10994655347_1_0" index="0" disallow="tram rail_urban rail rail_electric rail_fast ship" speed="13.89" length="0.30" shape="2882.55,1785.17 2882.83,1785.06"/>
    </edge>
    <edge id=":11422654505_0" function="internal">
        <lane id=":11422654505_0_0" index="0" disallow="tram rail_urban rail rail_electric rail_fast ship" speed="6.01" length="5.65" shape="2230.80,2214.14 2232.85,2214.66 2234.44,2214.85 2235.57,2214.73 2236.23,2214.27"/>
    </edge>
    <edge id=":11422654505_1" function="internal">
        <lane id=":11422654505_1_0" index="0" disallow="tram rail_urban rail rail_electric rail_fast ship" speed="21.51" length="5.75" shape="2233.71,2219.39 2234.21,2217.76 2234.65,2216.68 2235.25,2215.67 2236.23,2214.27"/>
    </edge>
    <edge id=":11435670178_0" function="internal">
        <lane id=":11435670178_0_0" index="0" disallow="tram rail_urban rail rail_electric rail_fast ship" speed="6.49" length="9.03" shape="2109.80,1056.75 2108.20,1054.86 2106.39,1053.93 2104.35,1053.98 2102.09,1055.00"/>
    </edge>
    <edge id=":11435670178_1" function="internal">
        <lane id=":11435670178_1_0" index="0" disallow="tram rail_urban rail rail_electric rail_fast ship" speed="8.33" length="14.40" shape="2109.80,1056.75 2102.18,1044.54"/>
    </edge>
    <edge id=":11435670178_2" function="internal">
        <lane id=":11435670178_2_0" index="0" disallow="tram rail_urban rail rail_electric rail_fast ship" speed="3.65" length="4.67" shape="2109.80,1056.75 2109.84,1055.31 2110.31,1054.55 2111.20,1054.46 2112.52,1055.06"/>
    </edge>
    <edge id=":11435670178_3" function="internal">
        <lane id=":11435670178_3_0" index="0" disallow="tram rail_urban rail rail_electric rail_fast ship" speed="8.33" length="14.40" shape="2104.89,1042.84 2112.52,1055.06"/>
    </edge>
    <edge id=":11435670178_4" function="internal">
        <lane id=":11435670178_4_0" index="0" disallow="tram rail_urban rail rail_electric rail_fast ship" speed="8.03" length="14.20" shape="2104.89,1042.84 2106.46,1046.39 2106.51,1049.60 2105.06,1052.47 2102.09,1055.00"/>
    </edge>
    <edge id=":11435670178_5" function="internal">
        <lane id=":11435670178_5_0" index="0" disallow="tram rail_urban rail rail_electric rail_fast ship" speed="3.65" length="4.67" shape="2104.89,1042.84 2104.85,1044.28 2104.38,1045.05 2103.49,1045.13 2102.18,1044.54"/>
    </edge>
    <edge id=":11435670178_6" function="internal">
        <lane id=":11435670178_6_0" index="0" disallow="tram rail_urban rail rail_electric rail_fast ship" speed="6.54" length="9.07" shape="2100.38,1052.30 2102.27,1050.68 2103.21,1048.85 2103.17,1046.80 2102.18,1044.54"/>
    </edge>
    <edge id=":11435670178_7" function="internal">
        <lane id=":11435670178_7_0" index="0" disallow="tram rail_urban rail rail_electric rail_fast ship" speed="7.99" length="14.22" shape="2100.38,1052.30 2103.93,1050.69 2107.14,1050.62 2110.00,1052.08 2112.52,1055.06"/>
    </edge>
    <edge id=":11435670178_8" function="internal">
        <lane id=":11435670178_8_0" index="0" disallow="tram rail_urban rail rail_electric rail_fast ship" speed="3.65" length="4.67" shape="2100.38,1052.30 2101.82,1052.33 2102.58,1052.79 2102.68,1053.68 2102.09,1055.00"/>
    </edge>
    <edge id=":11435670179_0" function="internal">
        <lane id=":11435670179_0_0" index="0" disallow="tram rail_urban rail rail_electric rail_fast ship" speed="3.65" length="4.67" shape="2043.53,1092.13 2042.08,1092.10 2041.32,1091.64 2041.23,1090.75 2041.81,1089.43"/>
    </edge>
    <edge id=":11435670180_0" function="internal">
        <lane id=":11435670180_0_0" index="0" disallow="tram rail_urban rail rail_electric rail_fast ship" speed="6.49" length="9.03" shape="2081.28,1011.04 2079.69,1009.15 2077.87,1008.23 2075.83,1008.28 2073.58,1009.30"/>
    </edge>
    <edge id=":11435670180_1" function="internal">
        <lane id=":11435670180_1_0" index="0" disallow="tram rail_urban rail rail_electric rail_fast ship" speed="8.33" length="14.40" shape="2081.28,1011.04 2073.67,998.83"/>
    </edge>
    <edge id=":11435670180_2" function="internal">
        <lane id=":11435670180_2_0" index="0" disallow="tram rail_urban rail rail_electric rail_fast ship" speed="3.65" length="4.67" shape="2081.28,1011.04 2081.33,1009.60 2081.80,1008.84 2082.69,1008.76 2084.00,1009.35"/>
    </edge>
    <edge id=":11435670180_3" function="internal">
        <lane id=":11435670180_3_0" index="0" disallow="tram rail_urban rail rail_electric rail_fast ship" speed="8.33" length="14.40" shape="2076.38,997.13 2084.00,1009.35"/>
    </edge>
    <edge id=":11435670180_4" function="internal">
        <lane id=":11435670180_4_0" index="0" disallow="tram rail_urban rail rail_electric rail_fast ship" speed="8.03" length="14.20" shape="2076.38,997.13 2077.94,1000.68 2078.00,1003.89 2076.54,1006.76 2073.58,1009.30"/>
    </edge>
    <edge id=":11435670180_5" function="internal">
        <lane id=":11435670180_5_0" index="0" disallow="tram rail_urban rail rail_electric rail_fast ship" speed="3.65" length="4.67" shape="2076.38,997.13 2076.34,998.57 2075.87,999.34 2074.98,999.42 2073.67,998.83"/>
    </edge>
    <edge id=":11435670180_6" function="internal">
        <lane id=":11435670180_6_0" index="0" disallow="tram rail_urban rail rail_electric rail_fast ship" speed="6.55" length="9.08" shape="2071.86,1006.60 2073.76,1004.98 2074.69,1003.14 2074.66,1001.09 2073.67,998.83"/>
    </edge>
    <edge id=":11435670180_7" function="internal">
        <lane id=":11435670180_7_0" index="0" disallow="tram rail_urban rail rail_electric rail_fast ship" speed="7.98" length="14.23" shape="2071.86,1006.60 2075.41,1004.99 2078.62,1004.91 2081.49,1006.36 2084.00,1009.35"/>
    </edge>
    <edge id=":11435670180_8" function="internal">
        <lane id=":11435670180_8_0" index="0" disallow="tram rail_urban rail rail_electric rail_fast ship" speed="3.65" length="4.67" shape="2071.86,1006.60 2073.30,1006.63 2074.07,1007.09 2074.16,1007.98 2073.58,1009.30"/>
    </edge>
    <edge id=":11435670181_0" function="internal">
        <lane id=":11435670181_0_0" index="0" disallow="tram rail_urban rail rail_electric rail_fast ship" speed="3.65" length="4.67" shape="2019.16,1043.97 2017.72,1043.94 2016.95,1043.48 2016.86,1042.59 2017.44,1041.27"/>
    </edge>
    <edge id=":1221396244_0" function="internal">
        <lane id=":1221396244_0_0" index="0" disallow="tram rail_urban rail rail_electric rail_fast ship" speed="13.89" length="0.29" shape="3240.86,1594.46 3240.58,1594.43"/>
    </edge>
    <edge id=":1221396244_1" function="internal">
        <lane id=":1221396244_1_0" index="0" disallow="tram rail_urban rail rail_electric rail_fast ship" speed="13.89" length="0.31" shape="3240.96,1591.25 3241.26,1591.29"/>
    </edge>
    <edge id=":12376448994_0" function="internal">
        <lane id=":12376448994_0_0" index="0" disallow="tram rail_urban rail rail_electric rail_fast ship" speed="3.65" length="4.67" shape="2406.58,1015.93 2407.03,1014.56 2407.70,1013.96 2408.58,1014.14 2409.67,1015.08"/>
    </edge>
    <edge id=":12376469702_0" function="internal">
        <lane id=":12376469702_0_0" index="0" disallow="tram rail_urban rail rail_electric rail_fast ship" speed="13.89" length="0.10" shape="2967.74,1784.06 2967.73,1784.06"/>
    </edge>
    <edge id=":12376469702_1" function="internal">
        <lane id=":12376469702_1_0" index="0" disallow="tram rail_urban rail rail_electric rail_fast ship" speed="13.89" length="0.10" shape="2967.60,1780.86 2967.60,1780.86"/>
    </edge>
    <edge id=":1238545151_0" function="internal">
        <lane id=":1238545151_0_0" index="0" disallow="tram rail_urban rail rail_electric rail_fast ship" speed="8.33" length="0.52" shape="2434.17,1915.60 2434.01,1915.62 2433.91,1915.63 2433.80,1915.64 2433.65,1915.64"/>
    </edge>
    <edge id=":1238545151_1" function="internal">
        <lane id=":1238545151_1_0" index="0" disallow="tram rail_urban rail rail_electric rail_fast ship" speed="8.33" length="0.17" shape="2433.59,1912.44 2433.64,1912.44 2433.67,1912.44 2433.71,1912.44 2433.76,1912.43"/>
    </edge>
    <edge id=":1245539258_0" function="internal">
        <lane id=":1245539258_0_0" index="0" disallow="tram rail_urban rail rail_electric rail_fast ship" speed="8.33" length="0.11" shape="1865.88,1851.39 1865.77,1851.40"/>
    </edge>
    <edge id=":1245539258_1" function="internal">
        <lane id=":1245539258_1_0" index="0" disallow="tram rail_urban rail rail_electric rail_fast ship" speed="8.33" length="0.33" shape="1865.64,1848.20 1865.97,1848.20"/>
    </edge>
    <edge id=":12947177820_0" function="internal">
        <lane id=":12947177820_0_0" index="0" disallow="tram rail_urban rail rail_electric rail_fast ship" speed="13.89" length="8.40" shape="3149.08,1585.84 3146.61,1586.29 3145.05,1587.37 3143.49,1588.44 3141.02,1588.90"/>
        <lane id=":12947177820_0_1" index="1" disallow="tram rail_urban rail rail_electric rail_fast ship" speed="13.89" length="8.40" shape="3149.08,1585.84 3141.08,1585.70"/>
    </edge>
    <edge id=":12947177820_2" function="internal">
        <lane id=":12947177820_2_0" index="0" disallow="tram rail_urban rail rail_electric rail_fast ship" speed="13.89" length="8.00" shape="3141.13,1582.50 3149.13,1582.64"/>
    </edge>
    <edge id=":12947177822_0" function="internal">
        <lane id=":12947177822_0_0" index="0" disallow="tram rail_urban rail rail_electric rail_fast ship" speed="13.89" length="7.99" shape="2245.94,1204.67 2241.95,1197.74"/>
    </edge>
    <edge id=":12947177822_1" function="internal">
        <lane id=":12947177822_1_0" index="0" disallow="tram rail_urban rail rail_electric rail_fast ship" speed="13.89" length="8.41" shape="2244.72,1196.14 2246.39,1198.03 2248.11,1198.81 2249.83,1199.60 2251.49,1201.49"/>
        <lane id=":12947177822_1_1" index="1" disallow="tram rail_urban rail rail_electric rail_fast ship" speed="13.89" length="8.41" shape="2244.72,1196.14 2248.72,1203.08"/>
    </edge>
    <edge id=":1322870651_0" function="internal">
        <lane id=":1322870651_0_0" index="0" disallow="tram rail_urban rail rail_electric rail_fast ship" speed="27.78" length="0.29" shape="2289.35,2475.03 2289.29,2474.75"/>
    </edge>
    <edge id=":1322870651_1" function="internal">
        <lane id=":1322870651_1_0" index="0" disallow="tram rail_urban rail rail_electric rail_fast ship" speed="27.78" length="0.30" shape="2295.53,2473.34 2295.60,2473.65"/>
        <lane id=":1322870651_1_1" index="1" disallow="tram rail_urban rail rail_electric rail_fast ship" speed="27.78" length="0.30" shape="2292.41,2474.05 2292.48,2474.34"/>
    </edge>
    <edge id=":1322870805_0" function="internal">
        <lane id=":1322870805_0_0" index="0" disallow="tram rail_urban rail rail_electric rail_fast ship" speed="8.07" length="6.67" shape="2361.85,2673.65 2361.84,2674.98 2362.25,2676.42 2363.07,2677.98 2364.30,2679.65"/>
    </edge>
    <edge id=":1322870805_1" function="internal">
        <lane id=":1322870805_1_0" index="0" disallow="tram rail_urban rail rail_electric rail_fast ship" speed="14.34" length="7.16" shape="2361.85,2673.65 2361.56,2675.76 2361.33,2677.24 2360.83,2678.60 2359.71,2680.36"/>
    </edge>
    <edge id=":1322870885_0" function="internal">
        <lane id=":1322870885_0_0" index="0" disallow="tram rail_urban rail rail_electric rail_fast ship" speed="4.84" length="8.58" shape="2375.53,2653.24 2378.56,2652.94 2379.75,2653.33 2379.11,2654.41 2376.65,2656.18"/>
    </edge>
    <edge id=":1322871039_0" function="internal">
        <lane id=":1322871039_0_0" index="0" disallow="tram rail_urban rail rail_electric rail_fast ship" speed="3.65" length="4.67" shape="1815.33,2032.42 1816.53,2033.22 1816.93,2034.02 1816.53,2034.82 1815.33,2035.62"/>
    </edge>
    <edge id=":1407203700_0" function="internal">
        <lane id=":1407203700_0_0" index="0" disallow="tram rail_urban rail rail_electric rail_fast ship" speed="22.22" length="0.10" shape="1613.57,197.07 1613.57,197.16"/>
    </edge>
    <edge id=":1407203700_1" function="internal">
        <lane id=":1407203700_1_0" index="0" disallow="tram rail_urban rail rail_electric rail_fast ship" speed="22.22" length="0.38" shape="1610.33,196.84 1610.43,196.47"/>
    </edge>
    <edge id=":1407203844_0" function="internal">
        <lane id=":1407203844_0_0" index="0" disallow="tram rail_urban rail rail_electric rail_fast ship" speed="22.22" length="8.08" shape="1689.14,263.12 1686.76,262.95 1685.08,263.63 1683.40,264.37 1680.98,264.35"/>
        <lane id=":1407203844_0_1" index="1" disallow="tram rail_urban rail rail_electric rail_fast ship" speed="22.22" length="8.08" shape="1689.14,263.12 1681.66,261.23"/>
    </edge>
    <edge id=":1407203844_2" function="internal">
        <lane id=":1407203844_2_0" index="0" disallow="tram rail_urban rail rail_electric rail_fast ship" speed="22.22" length="7.93" shape="1682.34,258.10 1690.03,260.04"/>
    </edge>
    <edge id=":17200974_0" function="internal">
        <lane id=":17200974_0_0" index="0" disallow="tram rail_urban rail rail_electric rail_fast ship" speed="5.65" length="9.62" shape="2538.94,1729.03 2537.79,1726.43 2536.30,1725.42 2534.46,1725.98 2532.28,1728.11"/>
    </edge>
    <edge id=":17200974_1" function="internal">
        <lane id=":17200974_1_0" index="0" disallow="tram rail_urban rail rail_electric rail_fast ship" speed="12.06" length="15.12" shape="2538.94,1729.03 2537.76,1724.12 2537.30,1720.03 2537.55,1716.74 2538.52,1714.27"/>
    </edge>
    <edge id=":17200974_2" function="internal">
        <lane id=":17200974_2_0" index="0" disallow="tram rail_urban rail rail_electric rail_fast ship" speed="3.67" length="4.73" shape="2538.94,1729.03 2539.16,1727.59 2539.72,1726.88 2540.63,1726.90 2541.87,1727.66"/>
    </edge>
    <edge id=":17200974_3" function="internal">
        <lane id=":17200974_3_0" index="0" disallow="tram rail_urban rail rail_electric rail_fast ship" speed="10.75" length="11.93" shape="2541.21,1716.00 2540.55,1717.82 2540.44,1720.37 2540.88,1723.65 2541.87,1727.66"/>
    </edge>
    <edge id=":17200974_4" function="internal">
        <lane id=":17200974_4_0" index="0" disallow="tram rail_urban rail rail_electric rail_fast ship" speed="13.89" length="15.06" shape="2541.21,1716.00 2539.12,1719.12 2536.91,1722.17 2534.62,1725.17 2532.28,1728.11"/>
    </edge>
    <edge id=":17200974_5" function="internal">
        <lane id=":17200974_5_0" index="0" disallow="tram rail_urban rail rail_electric rail_fast ship" speed="3.65" length="2.34" shape="2541.21,1716.00 2539.89,1716.58 2539.00,1716.48"/>
    </edge>
    <edge id=":17200974_9" function="internal">
        <lane id=":17200974_9_0" index="0" disallow="tram rail_urban rail rail_electric rail_fast ship" speed="3.65" length="2.34" shape="2539.00,1716.48 2538.54,1715.71 2538.52,1714.27"/>
    </edge>
    <edge id=":17200974_6" function="internal">
        <lane id=":17200974_6_0" index="0" disallow="tram rail_urban rail rail_electric rail_fast ship" speed="13.89" length="14.72" shape="2529.79,1726.11 2532.09,1723.21 2534.31,1720.31 2536.45,1717.35 2538.52,1714.27"/>
    </edge>
    <edge id=":17200974_7" function="internal">
        <lane id=":17200974_7_0" index="0" disallow="tram rail_urban rail rail_electric rail_fast ship" speed="7.37" length="7.10" shape="2529.79,1726.11 2533.75,1722.21 2535.22,1721.75"/>
    </edge>
    <edge id=":17200974_8" function="internal">
        <lane id=":17200974_8_0" index="0" disallow="tram rail_urban rail rail_electric rail_fast ship" speed="3.65" length="2.34" shape="2529.79,1726.11 2531.16,1725.68 2532.04,1725.87"/>
    </edge>
    <edge id=":17200974_10" function="internal">
        <lane id=":17200974_10_0" index="0" disallow="tram rail_urban rail rail_electric rail_fast ship" speed="7.37" length="10.34" shape="2535.22,1721.75 2537.09,1721.17 2539.79,1722.98 2541.87,1727.66"/>
    </edge>
    <edge id=":17200974_11" function="internal">
        <lane id=":17200974_11_0" index="0" disallow="tram rail_urban rail rail_electric rail_fast ship" speed="3.65" length="2.34" shape="2532.04,1725.87 2532.41,1726.68 2532.28,1728.11"/>
    </edge>
    <edge id=":17201057_0" function="internal">
        <lane id=":17201057_0_0" index="0" disallow="tram rail_urban rail rail_electric rail_fast ship" speed="13.89" length="0.10" shape="3403.94,1598.73 3403.84,1598.72"/>
    </edge>
    <edge id=":17201057_1" function="internal">
        <lane id=":17201057_1_0" index="0" disallow="tram rail_urban rail rail_electric rail_fast ship" speed="13.89" length="0.30" shape="3403.82,1595.52 3404.12,1595.53"/>
    </edge>
    <edge id=":17201085_0" function="internal">
        <lane id=":17201085_0_0" index="0" disallow="tram rail_urban rail rail_electric rail_fast ship" speed="13.89" length="0.20" shape="2601.72,1531.19 2601.52,1531.15"/>
    </edge>
    <edge id=":17201085_1" function="internal">
        <lane id=":17201085_1_0" index="0" disallow="tram rail_urban rail rail_electric rail_fast ship" speed="13.89" length="0.30" shape="2602.13,1528.01 2602.42,1528.07"/>
    </edge>
    <edge id=":1799643784_0" function="internal">
        <lane id=":1799643784_0_0" index="0" disallow="tram rail_urban rail rail_electric rail_fast ship" speed="8.33" length="0.16" shape="2063.90,1521.98 2063.86,1522.01 2063.84,1522.03 2063.81,1522.05 2063.77,1522.08"/>
    </edge>
    <edge id=":1799643784_1" function="internal">
        <lane id=":1799643784_1_0" index="0" disallow="tram rail_urban rail rail_electric rail_fast ship" speed="8.33" length="0.49" shape="2061.70,1519.65 2061.81,1519.55 2061.89,1519.49 2061.97,1519.43 2062.09,1519.35"/>
    </edge>
    <edge id=":1799643819_0" function="internal">
        <lane id=":1799643819_0_0" index="0" disallow="tram rail_urban rail rail_electric rail_fast ship" speed="8.33" length="0.28" shape="1846.12,1664.57 1845.96,1664.34"/>
    </edge>
    <edge id=":1799643819_1" function="internal">
        <lane id=":1799643819_1_0" index="0" disallow="tram rail_urban rail rail_electric rail_fast ship" speed="8.33" length="0.15" shape="1848.69,1662.66 1848.77,1662.78"/>
    </edge>
    <edge id=":1799643829_0" function="internal">
        <lane id=":1799643829_0_0" index="0" disallow="tram rail_urban rail rail_electric rail_fast ship" speed="8.33" length="0.28" shape="2033.95,1700.33 2033.90,1700.06"/>
    </edge>
    <edge id=":1799643829_1" function="internal">
        <lane id=":1799643829_1_0" index="0" disallow="tram rail_urban rail rail_electric rail_fast ship" speed="8.33" length="0.15" shape="2037.06,1699.53 2037.09,1699.67"/>
    </edge>
    <edge id=":1799643831_0" function="internal">
        <lane id=":1799643831_0_0" index="0" disallow="tram rail_urban rail rail_electric rail_fast ship" speed="8.33" length="0.19" shape="1936.22,1703.05 1936.11,1702.90"/>
    </edge>
    <edge id=":1799643831_1" function="internal">
        <lane id=":1799643831_1_0" index="0" disallow="tram rail_urban rail rail_electric rail_fast ship" speed="8.33" length="0.30" shape="1938.68,1700.99 1938.85,1701.24"/>
    </edge>
    <edge id=":1799643838_0" function="internal">
        <lane id=":1799643838_0_0" index="0" disallow="tram rail_urban rail rail_electric rail_fast ship" speed="8.33" length="0.23" shape="2135.31,1723.37 2135.09,1723.43"/>
    </edge>
    <edge id=":1799643838_1" function="internal">
        <lane id=":1799643838_1_0" index="0" disallow="tram rail_urban rail rail_electric rail_fast ship" speed="8.33" length="0.31" shape="2134.15,1720.37 2134.45,1720.29"/>
    </edge>
    <edge id=":1805072065_0" function="internal">
        <lane id=":1805072065_0_0" index="0" disallow="tram rail_urban rail rail_electric rail_fast ship" speed="8.33" length="0.14" shape="1896.98,1605.32 1896.87,1605.39"/>
    </edge>
    <edge id=":1805072065_1" function="internal">
        <lane id=":1805072065_1_0" index="0" disallow="tram rail_urban rail rail_electric rail_fast ship" speed="8.33" length="0.41" shape="1895.10,1602.73 1895.45,1602.52"/>
    </edge>
    <edge id=":1805072069_0" function="internal">
        <lane id=":1805072069_0_0" index="0" disallow="tram rail_urban rail rail_electric rail_fast ship" speed="8.33" length="0.10" shape="2100.37,1637.69 2100.37,1637.69"/>
    </edge>
    <edge id=":1805072069_1" function="internal">
        <lane id=":1805072069_1_0" index="0" disallow="tram rail_urban rail rail_electric rail_fast ship" speed="8.33" length="0.10" shape="2098.59,1635.03 2098.59,1635.03"/>