<?xml version="1.0" encoding="UTF-8"?>

<!-- generated on 12/16/25 13:42:09 by Eclipse SUMO polyconvert Version 1.5.0
<configuration xmlns:xsi="http://www.w3.org/2001/XMLSchema-instance" xsi:noNamespaceSchemaLocation="http://sumo.dlr.de/xsd/polyconvertConfiguration.xsd">

    <input>
        <net-file value="reichertshofen.net.xml"/>
        <osm-files value="reichertshofen_raw.osm"/>
    </input>

    <output>
        <output-file value="reichertshofen.poly.xml"/>
    </output>

    <processing>
        <poi-layer-offset value="5"/>
    </processing>

</configuration>
-->

<additional xmlns:xsi="http://www.w3.org/2001/XMLSchema-instance" xsi:noNamespaceSchemaLocation="http://sumo.dlr.de/xsd/additional_file.xsd">
    <location netOffset="-678772.01,-5388085.95" convBoundary="0.00,-216.14,12055.11,8857.30" origBoundary="11.427749,48.615985,11.592602,48.697951" projParameter="+proj=utm +zone=32 +ellps=WGS84 +datum=WGS84 +units=m +no_defs"/>

    <poly id="1002109988" type="building" color="255,230,230" fill="1" layer="-1.00" shape="8009.207582,3443.510751 8008.901080,3450.955487 8016.985199,3451.291032 8017.291712,3443.846296 8014.052021,3443.716327 8009.207582,3443.510751"/>
    <poly id="1002109989" type="building" color="255,230,230" fill="1" layer="-1.00" shape="7998.664652,3437.741503 7998.945275,3431.074780 7999.084477,3427.774762 7993.356269,3427.539819 7992.936823,3437.495446 7998.664652,3437.741503"/>
    <poly id="1002109990" type="building" color="255,230,230" fill="1" layer="-1.00" shape="7977.549963,3278.906190 7984.831020,3277.456953 7983.888834,3272.752399 7976.607771,3274.201636 7977.549963,3278.906190"/>
    <poly id="1002109991" type="building" color="255,230,230" fill="1" layer="-1.00" shape="8162.887375,3313.610095 8160.959154,3303.976913 8152.067337,3305.750640 8153.995942,3315.372704 8162.887375,3313.610095"/>
    <poly id="1002109992" type="building" color="255,230,230" fill="1" layer="-1.00" shape="8121.112539,3286.784461 8121.288741,3279.936235 8116.500490,3279.810332 8116.324294,3286.658558 8121.112539,3286.784461"/>
    <poly id="1002109993" type="building" color="255,230,230" fill="1" layer="-1.00" shape="8100.565107,3305.372523 8105.256602,3304.638435 8104.233742,3298.150888 8099.549607,3298.885223 8100.565107,3305.372523"/>
    <poly id="1002109994" type="building" color="255,230,230" fill="1" layer="-1.00" shape="8072.512902,3322.386972 8078.529383,3321.051577 8076.719402,3312.957858 8070.710647,3314.282386 8072.512902,3322.386972"/>
    <poly id="1002109995" type="building" color="255,230,230" fill="1" layer="-1.00" shape="8073.560248,3330.577721 8079.979878,3329.756439 8079.002436,3322.124352 8072.582797,3322.945635 8073.560248,3330.577721"/>
    <poly id="1002109996" type="building" color="255,230,230" fill="1" layer="-1.00" shape="8068.510494,3331.222032 8073.560248,3330.577721 8072.582797,3322.945635 8067.532667,3323.601062 8068.510494,3331.222032"/>
    <poly id="1002109997" type="building" color="255,230,230" fill="1" layer="-1.00" shape="8015.504820,3316.641449 8019.325703,3310.159192 8015.001006,3307.623154 8011.180127,3314.105413 8015.504820,3316.641449"/>
    <poly id="1002109998" type="building" color="255,230,230" fill="1" layer="-1.00" shape="8010.197835,3335.002179 8009.060467,3327.520567 8003.740048,3328.322839 8004.877422,3335.804450 8010.197835,3335.002179"/>
    <poly id="1002109999" type="building" color="255,230,230" fill="1" layer="-1.00" shape="7963.421634,3388.758288 7958.620872,3389.455477 7959.499212,3395.415229 7965.804235,3394.489873 7965.149260,3390.017402 7963.645362,3390.234455 7963.421634,3388.758288"/>
    <poly id="1002110000" type="building" color="255,230,230" fill="1" layer="-1.00" shape="8097.786325,3395.562661 8099.721245,3402.336463 8106.248830,3400.484017 8104.313917,3393.710214 8097.786325,3395.562661"/>
    <poly id="1002110001" type="building" color="255,230,230" fill="1" layer="-1.00" shape="8087.069893,3393.014239 8090.484458,3404.955563 8099.721245,3402.336463 8097.786325,3395.562661 8096.314061,3390.395378 8087.069893,3393.014239"/>
    <poly id="1002110002" type="building" color="255,230,230" fill="1" layer="-1.00" shape="8064.756161,3414.403235 8073.588203,3411.982042 8072.022457,3406.299825 8063.190407,3408.721021 8064.756161,3414.403235"/>
    <poly id="1002110003" type="building" color="255,230,230" fill="1" layer="-1.00" shape="8190.031087,3326.786163 8189.367018,3320.154760 8185.238976,3320.573725 8185.910784,3327.194259 8190.031087,3326.786163"/>
    <poly id="1002110004" type="building" color="255,230,230" fill="1" layer="-1.00" shape="8014.471757,3340.173568 8028.795433,3337.790236 8027.324247,3329.040197 8013.007915,3331.423777 8014.471757,3340.173568"/>
    <poly id="1002110005" type="building" color="255,230,230" fill="1" layer="-1.00" shape="8031.612255,3333.344180 8044.125623,3331.523792 8042.026905,3317.256262 8029.513507,3319.076655 8031.612255,3333.344180"/>
    <poly id="1002110006" type="building" color="255,230,230" fill="1" layer="-1.00" shape="8050.670072,3324.731558 8044.394782,3325.646687 8045.694705,3334.446672 8051.969987,3333.531545 8050.670072,3324.731558"/>
    <poly id="1002110007" type="building" color="255,230,230" fill="1" layer="-1.00" shape="8051.969987,3333.531545 8067.869760,3331.200723 8066.569869,3322.400733 8050.670072,3324.731558 8051.969987,3333.531545"/>
    <poly id="1002110008" type="building" color="255,230,230" fill="1" layer="-1.00" shape="8098.823876,3298.315872 8107.112907,3296.266095 8104.934062,3287.514743 8096.645020,3289.564524 8098.823876,3298.315872"/>
    <poly id="1002110009" type="building" color="255,230,230" fill="1" layer="-1.00" shape="8098.704257,3326.073168 8099.410605,3331.214975 8107.758019,3330.068411 8107.044313,3324.926359 8102.222487,3325.589349 8098.704257,3326.073168"/>
    <poly id="1002110010" type="building" color="255,230,230" fill="1" layer="-1.00" shape="8091.541857,3327.058879 8098.704257,3326.073168 8102.222487,3325.589349 8100.392966,3312.321025 8089.704946,3313.790314 8091.541857,3327.058879"/>
    <poly id="1002110011" type="building" color="255,230,230" fill="1" layer="-1.00" shape="8072.300383,3311.041735 8086.440870,3307.962594 8084.303373,3298.188964 8070.155499,3301.267867 8072.300383,3311.041735"/>
    <poly id="1002110012" type="building" color="255,230,230" fill="1" layer="-1.00" shape="8126.707212,3325.168767 8137.492690,3321.878001 8135.264357,3314.615974 8124.478867,3317.906744 8126.707212,3325.168767"/>
    <poly id="1002110013" type="building" color="255,230,230" fill="1" layer="-1.00" shape="8117.068462,3314.600368 8136.195061,3313.456374 8135.581489,3303.310602 8125.364537,3303.916482 8124.950081,3297.093113 8116.048124,3297.620362 8117.068462,3314.600368"/>
    <poly id="1002110014" type="building" color="255,230,230" fill="1" layer="-1.00" shape="8144.676712,3287.223465 8156.996528,3285.463641 8155.734322,3276.642623 8143.414488,3278.402451 8144.676712,3287.223465"/>
    <poly id="1002110015" type="building" color="255,230,230" fill="1" layer="-1.00" shape="8168.596961,3308.425846 8179.137418,3306.517850 8176.463154,3291.830535 8165.915305,3293.738291 8168.596961,3308.425846"/>
    <poly id="1002110016" type="building" color="255,230,230" fill="1" layer="-1.00" shape="8181.922303,3332.725060 8181.432377,3323.740577 8174.725557,3324.107116 8175.215493,3333.091598 8181.922303,3332.725060"/>
    <poly id="1002110017" type="building" color="255,230,230" fill="1" layer="-1.00" shape="8191.953307,3349.226077 8202.551072,3347.809615 8200.173768,3330.183570 8189.575971,3331.600038 8191.953307,3349.226077"/>
    <poly id="1002110018" type="building" color="255,230,230" fill="1" layer="-1.00" shape="8168.643887,3348.450407 8180.040574,3348.061896 8179.582170,3335.028317 8168.192452,3335.428188 8168.643887,3348.450407"/>
    <poly id="1002110019" type="building" color="255,230,230" fill="1" layer="-1.00" shape="8149.077175,3348.199921 8158.125244,3347.710971 8157.953000,3344.467349 8160.301647,3344.345215 8159.863857,3336.230358 8148.467118,3336.841445 8149.077175,3348.199921"/>
    <poly id="1002110020" type="building" color="255,230,230" fill="1" layer="-1.00" shape="8091.285629,3340.747402 8091.533281,3350.591698 8099.945351,3350.381924 8099.697714,3340.537627 8091.285629,3340.747402"/>
    <poly id="1002110021" type="building" color="255,230,230" fill="1" layer="-1.00" shape="8056.664856,3373.710625 8071.558057,3371.936065 8070.091438,3359.725738 8055.205571,3361.500548 8056.664856,3373.710625"/>
    <poly id="1002110022" type="building" color="255,230,230" fill="1" layer="-1.00" shape="8053.611467,3382.388098 8051.570080,3369.502185 8040.667473,3371.220339 8042.708884,3384.106248 8053.611467,3382.388098"/>
    <poly id="1002110023" type="building" color="255,230,230" fill="1" layer="-1.00" shape="8027.400170,3415.230578 8027.103414,3421.051132 8032.535196,3421.331886 8032.831958,3415.511332 8027.400170,3415.230578"/>
    <poly id="1002110024" type="building" color="255,230,230" fill="1" layer="-1.00" shape="7996.425318,3416.170166 8002.939708,3416.486882 8003.264892,3409.810514 7996.750493,3409.493797 7996.425318,3416.170166"/>
    <poly id="1002110025" type="building" color="255,230,230" fill="1" layer="-1.00" shape="8021.567626,3403.498199 8004.686010,3402.547483 8004.008183,3414.508463 8020.882029,3415.470047 8021.567626,3403.498199"/>
    <poly id="1002110026" type="building" color="255,230,230" fill="1" layer="-1.00" shape="8017.899497,3382.769485 8002.611918,3381.771638 8001.987040,3391.253111 8017.281957,3392.251202 8017.899497,3382.769485"/>
    <poly id="1002110027" type="building" color="255,230,230" fill="1" layer="-1.00" shape="8022.725053,3365.583317 8022.457884,3357.874718 8003.546956,3358.525555 8003.821515,3366.234396 8022.725053,3365.583317"/>
    <poly id="1002110028" type="building" color="255,230,230" fill="1" layer="-1.00" shape="7977.621285,3377.680720 7969.471347,3378.878542 7968.893641,3374.964976 7961.551257,3376.045005 7963.421634,3388.758288 7963.645362,3390.234455 7965.149260,3390.017402 7979.137282,3387.967725 7977.621285,3377.680720"/>
    <poly id="1002110029" type="building" color="255,230,230" fill="1" layer="-1.00" shape="7966.942627,3416.580932 7962.518569,3417.479793 7964.292877,3426.206508 7972.301758,3424.592304 7971.275679,3419.528905 7967.690477,3420.255364 7966.942627,3416.580932"/>
    <poly id="1002110030" type="building" color="255,230,230" fill="1" layer="-1.00" shape="7979.553816,3407.375500 7965.643824,3410.184385 7966.942627,3416.580932 7967.690477,3420.255364 7971.275679,3419.528905 7981.600446,3417.446485 7979.553816,3407.375500"/>
    <poly id="1002111583" type="building" color="255,230,230" fill="1" layer="-1.00" shape="6849.262917,4047.216253 6849.805776,4053.765527 6856.118317,4053.250915 6855.575465,4046.701640 6849.262917,4047.216253"/>
    <poly id="1002111584" type="building" color="255,230,230" fill="1" layer="-1.00" shape="6798.083248,4067.655984 6803.295241,4066.982560 6802.685110,4062.244711 6797.466116,4062.906777 6798.083248,4067.655984"/>
    <poly id="1002111585" type="building" color="255,230,230" fill="1" layer="-1.00" shape="6788.669538,4027.711927 6782.215659,4028.934051 6783.039322,4033.233886 6776.785743,4034.418126 6777.760072,4039.512928 6789.574312,4037.366351 6788.669538,4027.711927"/>
    <poly id="1002111586" type="building" color="255,230,230" fill="1" layer="-1.00" shape="6790.173023,4037.764435 6793.921502,4037.209551 6792.425387,4027.157285 6788.669538,4027.711927 6790.173023,4037.764435"/>
    <poly id="1002111587" type="building" color="255,230,230" fill="1" layer="-1.00" shape="6809.331542,4052.739635 6801.421862,4053.846875 6802.352851,4060.475725 6810.262522,4059.368487 6809.331542,4052.739635"/>
    <poly id="1002111588" type="building" color="255,230,230" fill="1" layer="-1.00" shape="6814.017859,4040.087724 6799.768768,4042.075918 6801.421862,4053.846875 6809.331542,4052.739635 6815.678288,4051.858929 6814.017859,4040.087724"/>
    <poly id="1002111589" type="building" color="255,230,230" fill="1" layer="-1.00" shape="6792.368975,4022.170692 6794.448718,4036.870917 6808.594726,4034.879302 6806.515019,4020.179071 6792.368975,4022.170692"/>
    <poly id="1002111590" type="building" color="255,230,230" fill="1" layer="-1.00" shape="6770.008888,4015.067591 6773.018042,4030.199065 6783.895995,4028.054925 6780.886867,4012.923445 6770.008888,4015.067591"/>
    <poly id="1002111591" type="building" color="255,230,230" fill="1" layer="-1.00" shape="6761.039250,4028.846482 6760.162429,4034.859276 6764.953366,4035.551608 6765.830193,4029.538815 6761.039250,4028.846482"/>
    <poly id="1002111592" type="building" color="255,230,230" fill="1" layer="-1.00" shape="6750.632076,4018.077079 6748.438398,4033.159082 6760.162429,4034.859276 6761.039250,4028.846482 6762.356138,4019.777276 6750.632076,4018.077079"/>
    <poly id="1002111593" type="building" color="255,230,230" fill="1" layer="-1.00" shape="6800.414279,3997.101160 6799.688690,4002.551489 6805.200941,4003.278812 6805.926536,3997.828484 6800.414279,3997.101160"/>
    <poly id="1002111594" type="building" color="255,230,230" fill="1" layer="-1.00" shape="6790.818504,3985.201321 6789.625571,3993.417867 6800.058414,3994.930837 6801.258726,3986.714536 6790.818504,3985.201321"/>
    <poly id="1002111595" type="building" color="255,230,230" fill="1" layer="-1.00" shape="6793.565353,3966.321170 6790.818504,3985.201321 6801.258726,3986.714536 6804.005978,3967.823274 6793.565353,3966.321170"/>
    <poly id="1002111596" type="building" color="255,230,230" fill="1" layer="-1.00" shape="6772.600150,3971.214149 6768.721687,3983.737004 6781.550970,3987.687944 6785.436458,3975.176455 6772.600150,3971.214149"/>
    <poly id="1002111597" type="building" color="255,230,230" fill="1" layer="-1.00" shape="6755.659313,3979.700509 6768.721687,3983.737004 6772.600150,3971.214149 6759.537382,3967.188760 6755.659313,3979.700509"/>
    <poly id="1002111598" type="building" color="255,230,230" fill="1" layer="-1.00" shape="6764.725507,3935.549116 6771.342564,3937.870623 6773.667832,3931.304839 6767.050768,3928.983330 6764.725507,3935.549116"/>
    <poly id="1002111599" type="building" color="255,230,230" fill="1" layer="-1.00" shape="6742.635644,3950.385641 6740.533627,3957.782179 6749.020728,3960.176550 6751.122755,3952.780015 6742.635644,3950.385641"/>
    <poly id="1002111600" type="building" color="255,230,230" fill="1" layer="-1.00" shape="6746.832328,3935.592325 6742.635644,3950.385641 6751.122755,3952.780015 6755.319461,3937.986705 6746.832328,3935.592325"/>
    <poly id="1002111601" type="building" color="255,230,230" fill="1" layer="-1.00" shape="6745.871454,3918.258695 6742.350398,3929.335782 6761.874198,3935.499441 6765.387926,3924.422121 6745.871454,3918.258695"/>
    <poly id="1002111602" type="building" color="255,230,230" fill="1" layer="-1.00" shape="6713.909688,3941.603826 6710.225764,3954.266657 6727.363855,3959.227630 6731.048183,3946.553695 6713.909688,3941.603826"/>
    <poly id="1002111603" type="building" color="255,230,230" fill="1" layer="-1.00" shape="6692.693446,3926.861467 6689.225783,3940.343693 6706.923542,3944.878015 6710.391613,3931.384684 6692.693446,3926.861467"/>
    <poly id="1002111604" type="building" color="255,230,230" fill="1" layer="-1.00" shape="6726.356244,4018.310082 6739.402214,4021.055283 6742.740502,4005.243345 6729.694495,4002.498137 6726.356244,4018.310082"/>
    <poly id="1002111605" type="building" color="255,230,230" fill="1" layer="-1.00" shape="6699.978880,3995.119026 6699.328352,3999.192140 6707.886356,4000.554018 6708.536889,3996.480905 6699.978880,3995.119026"/>
    <poly id="1002111606" type="building" color="255,230,230" fill="1" layer="-1.00" shape="6697.169211,4005.418509 6695.774481,4015.508803 6708.029855,4017.193049 6709.424606,4007.102759 6697.169211,4005.418509"/>
    <poly id="1002111607" type="building" color="255,230,230" fill="1" layer="-1.00" shape="6677.544486,3990.483961 6684.926564,3992.407815 6687.786588,3981.475772 6683.876278,3980.456533 6682.770694,3984.692649 6679.298915,3983.788032 6677.544486,3990.483961"/>
    <poly id="1002111608" type="building" color="255,230,230" fill="1" layer="-1.00" shape="6694.901956,3975.179390 6693.382951,3983.451942 6713.775648,3987.185150 6715.294682,3978.912603 6694.901956,3975.179390"/>
    <poly id="1002111609" type="building" color="255,230,230" fill="1" layer="-1.00" shape="6671.325969,3966.267421 6668.430521,3976.263665 6679.639754,3979.493286 6682.535221,3969.497047 6671.325969,3966.267421"/>
    <poly id="1002111610" type="building" color="255,230,230" fill="1" layer="-1.00" shape="6639.173329,3945.834564 6635.227491,3959.067373 6644.600913,3961.858018 6645.935459,3957.384669 6655.798224,3960.313879 6658.409551,3951.554430 6639.173329,3945.834564"/>
    <poly id="1002111611" type="building" color="255,230,230" fill="1" layer="-1.00" shape="6511.805166,3951.300699 6516.436836,3936.710747 6508.732395,3934.275792 6504.093381,3948.865507 6511.805166,3951.300699"/>
    <poly id="1002111612" type="building" color="255,230,230" fill="1" layer="-1.00" shape="6553.755529,3928.384165 6550.392366,3933.346931 6561.260230,3940.670759 6564.623765,3935.696885 6553.755529,3928.384165"/>
    <poly id="1002111613" type="building" color="255,230,230" fill="1" layer="-1.00" shape="6551.224328,3926.676168 6553.755529,3928.384165 6564.623765,3935.696885 6574.532378,3942.377125 6581.948609,3931.428487 6565.176606,3920.282533 6557.256694,3914.546929 6551.224328,3926.676168"/>
    <poly id="1002111614" type="building" color="255,230,230" fill="1" layer="-1.00" shape="6565.008215,3897.011259 6557.256694,3914.546929 6565.176606,3920.282533 6574.069696,3900.993159 6565.008215,3897.011259"/>
    <poly id="1002111615" type="building" color="255,230,230" fill="1" layer="-1.00" shape="6621.832662,3947.231599 6619.606368,3951.697773 6626.953743,3955.345025 6629.180042,3950.878854 6621.832662,3947.231599"/>
    <poly id="1002111616" type="building" color="255,230,230" fill="1" layer="-1.00" shape="6608.320175,3946.106897 6619.606368,3951.697773 6621.832662,3947.231599 6624.453568,3941.977334 6613.167725,3936.375335 6608.320175,3946.106897"/>
    <poly id="1002111617" type="building" color="255,230,230" fill="1" layer="-1.00" shape="6593.343936,3911.598622 6583.994248,3925.287348 6592.495136,3931.064418 6601.844837,3917.375706 6593.343936,3911.598622"/>
    <poly id="1002111618" type="building" color="255,230,230" fill="1" layer="-1.00" shape="6590.085853,3860.431131 6587.683541,3873.358852 6593.684585,3874.469267 6596.086910,3861.541548 6590.085853,3860.431131"/>
    <poly id="1002111619" type="building" color="255,230,230" fill="1" layer="-1.00" shape="6577.776620,3891.869273 6587.282026,3894.908955 6592.235996,3879.495193 6582.737930,3876.455747 6577.776620,3891.869273"/>
    <poly id="1002111620" type="building" color="255,230,230" fill="1" layer="-1.00" shape="6497.894343,3881.345157 6505.435579,3885.154407 6504.426632,3887.135040 6509.234163,3889.563441 6513.341733,3881.476381 6508.353029,3878.952988 6509.740013,3876.239344 6503.112335,3872.894159 6505.848014,3867.510111 6499.328950,3864.224146 6495.426786,3871.895180 6501.213443,3874.812059 6497.894343,3881.345157"/>
    <poly id="1002111621" type="building" color="255,230,230" fill="1" layer="-1.00" shape="6514.350349,3887.551392 6523.620727,3892.129807 6528.966562,3881.368717 6519.696169,3876.790292 6514.350349,3887.551392"/>
    <poly id="1002111622" type="building" color="255,230,230" fill="1" layer="-1.00" shape="6537.439093,3888.902763 6532.234293,3899.857651 6545.662920,3906.208896 6550.874739,3895.265377 6537.439093,3888.902763"/>
    <poly id="1002111623" type="building" color="255,230,230" fill="1" layer="-1.00" shape="6552.569898,3881.424186 6566.461014,3887.835245 6575.722630,3867.879308 6561.824107,3861.467984 6552.569898,3881.424186"/>
    <poly id="1002111624" type="building" color="255,230,230" fill="1" layer="-1.00" shape="6599.510613,3831.067506 6607.470030,3834.045071 6611.640364,3822.944835 6603.680932,3819.967264 6599.510613,3831.067506"/>
    <poly id="1002111625" type="building" color="255,230,230" fill="1" layer="-1.00" shape="6545.041446,3817.342527 6550.175168,3805.639820 6540.320360,3801.342506 6535.186656,3813.045222 6545.041446,3817.342527"/>
    <poly id="1002342928" type="building" color="255,230,230" fill="1" layer="-1.00" shape="3087.355042,4794.114010 3092.957506,4804.097654 3098.819343,4800.838376 3093.209882,4790.843373 3087.355042,4794.114010"/>
    <poly id="1002342929" type="building" color="255,230,230" fill="1" layer="-1.00" shape="3083.858188,4783.063689 3088.748160,4792.289923 3098.675980,4787.059471 3093.786019,4777.833228 3083.858188,4783.063689"/>
    <poly id="1002342930" type="building" color="255,230,230" fill="1" layer="-1.00" shape="3079.112880,4848.343311 3090.389525,4843.790726 3086.983390,4835.402504 3078.171311,4838.955667 3079.584510,4842.428309 3077.119933,4843.427738 3079.112880,4848.343311"/>
    <poly id="1002342931" type="building" color="255,230,230" fill="1" layer="-1.00" shape="2993.134390,4907.654943 2987.397575,4897.266509 2975.436843,4903.833244 2981.181034,4914.221904 2993.134390,4907.654943"/>
    <poly id="1002342932" type="building" color="255,230,230" fill="1" layer="-1.00" shape="3059.845144,4878.895023 3063.659080,4877.193827 3061.514201,4872.417980 3057.707625,4874.119416 3059.845144,4878.895023"/>
    <poly id="1002342933" type="building" color="255,230,230" fill="1" layer="-1.00" shape="3040.272501,4865.377100 3043.263071,4858.375404 3038.042943,4856.159162 3035.052739,4863.149746 3040.272501,4865.377100"/>
    <poly id="1002342934" type="building" color="255,230,230" fill="1" layer="-1.00" shape="3075.779833,4875.249834 3069.981015,4861.999862 3060.060775,4866.318252 3065.859971,4879.557099 3075.779833,4875.249834"/>
    <poly id="1002342935" type="building" color="255,230,230" fill="1" layer="-1.00" shape="3048.300227,4887.411037 3054.971279,4884.422698 3052.042127,4877.919148 3054.442942,4876.839761 3051.334594,4869.952118 3042.263074,4874.008738 3048.300227,4887.411037"/>
    <poly id="1002342936" type="building" color="255,230,230" fill="1" layer="-1.00" shape="3028.812634,4892.209658 3024.368031,4894.268750 3028.254218,4902.627968 3032.698456,4900.579994 3031.313588,4897.597835 3028.812634,4892.209658"/>
    <poly id="1002342937" type="building" color="255,230,230" fill="1" layer="-1.00" shape="3041.452137,4892.908176 3034.706263,4878.403696 3024.568055,4883.082253 3028.812634,4892.209658 3031.313588,4897.597835 3041.452137,4892.908176"/>
    <poly id="1002342938" type="building" color="255,230,230" fill="1" layer="-1.00" shape="3021.131883,4897.702114 3024.161311,4903.385553 3026.785698,4902.001860 3022.672126,4894.291727 3020.055099,4895.675661 3021.131883,4897.702114"/>
    <poly id="1002342939" type="building" color="255,230,230" fill="1" layer="-1.00" shape="3004.701844,4913.692640 3024.161311,4903.385553 3021.131883,4897.702114 3017.997487,4899.358580 3012.821119,4889.644708 3003.837432,4894.405182 3009.013810,4904.119045 3001.672404,4908.009211 3004.701844,4913.692640"/>
    <poly id="1002529062" type="building" color="255,230,230" fill="1" layer="-1.00" shape="2875.401221,3667.214123 2886.597389,3669.545514 2888.933290,3658.405871 2877.737100,3656.074477 2875.401221,3667.214123"/>
    <poly id="1002529063" type="building" color="255,230,230" fill="1" layer="-1.00" shape="2859.766300,3661.490390 2874.861870,3665.427621 2877.788320,3654.262567 2862.692720,3650.325329 2859.766300,3661.490390"/>
    <poly id="1002529064" type="building" color="255,230,230" fill="1" layer="-1.00" shape="2810.427220,3684.728888 2817.005888,3686.688357 2818.616869,3681.321992 2812.030831,3679.362283 2810.427220,3684.728888"/>
    <poly id="1002529065" type="building" color="255,230,230" fill="1" layer="-1.00" shape="2790.868812,3688.636166 2803.954482,3692.263469 2806.448082,3683.309628 2793.362393,3679.682319 2790.868812,3688.636166"/>
    <poly id="1002529066" type="building" color="255,230,230" fill="1" layer="-1.00" shape="2753.347386,3692.252284 2753.343449,3695.111580 2753.336282,3698.527079 2758.776380,3698.535987 2758.787490,3692.261192 2753.347386,3692.252284"/>
    <poly id="1002529067" type="building" color="255,230,230" fill="1" layer="-1.00" shape="2728.573571,3687.602118 2728.560868,3692.786497 2732.062054,3692.799488 2732.067396,3687.614872 2728.573571,3687.602118"/>
    <poly id="1002529068" type="building" color="255,230,230" fill="1" layer="-1.00" shape="2737.201783,3685.221757 2737.185517,3695.079007 2753.343449,3695.111580 2753.347386,3692.252284 2753.359744,3685.254329 2737.201783,3685.221757"/>
    <poly id="1002529069" type="building" color="255,230,230" fill="1" layer="-1.00" shape="2711.069096,3675.854779 2711.054096,3682.708005 2711.042669,3688.081568 2726.507672,3688.113928 2726.526768,3675.886900 2711.069096,3675.854779"/>
    <poly id="1002529070" type="building" color="255,230,230" fill="1" layer="-1.00" shape="2704.604023,3682.699893 2711.054096,3682.708005 2711.069096,3675.854779 2711.074094,3673.418312 2704.624369,3673.399086 2704.610259,3679.084095 2704.604023,3682.699893"/>
    <poly id="1002529071" type="building" color="255,230,230" fill="1" layer="-1.00" shape="2699.509255,3679.075068 2699.502310,3683.169268 2699.493909,3685.939409 2704.602272,3685.948673 2704.604023,3682.699893 2704.610259,3679.084095 2699.509255,3679.075068"/>
    <poly id="1002529072" type="building" color="255,230,230" fill="1" layer="-1.00" shape="2683.285439,3683.134948 2699.502310,3683.169268 2699.509255,3679.075068 2699.523508,3671.331727 2683.306603,3671.297407 2683.285439,3683.134948"/>
    <poly id="1002529073" type="building" color="255,230,230" fill="1" layer="-1.00" shape="2543.119629,3671.666268 2550.094314,3679.401540 2550.808068,3678.757011 2554.943115,3683.340942 2559.877612,3678.916260 2555.749929,3674.332563 2558.786354,3671.615667 2562.423133,3675.649465 2566.658973,3671.858677 2563.022553,3667.813762 2563.637346,3667.266175 2556.662662,3659.530887 2543.119629,3671.666268"/>
    <poly id="1002529074" type="building" color="255,230,230" fill="1" layer="-1.00" shape="2566.466035,3657.054686 2563.048287,3659.937288 2567.912613,3665.679636 2571.330360,3662.797037 2568.816740,3659.823096 2566.466035,3657.054686"/>
    <poly id="1002529075" type="building" color="255,230,230" fill="1" layer="-1.00" shape="2575.723907,3639.507227 2580.197922,3644.780813 2585.070516,3640.676810 2580.596501,3635.403220 2575.723907,3639.507227"/>
    <poly id="1002529076" type="building" color="255,230,230" fill="1" layer="-1.00" shape="2568.816740,3659.823096 2582.889189,3647.960765 2580.197922,3644.780813 2575.723907,3639.507227 2574.630369,3638.214671 2560.550552,3650.076785 2566.466035,3657.054686 2568.816740,3659.823096"/>
    <poly id="1002529077" type="building" color="255,230,230" fill="1" layer="-1.00" shape="2581.473849,3633.573479 2592.718426,3623.678210 2583.749731,3613.542022 2572.505511,3623.426195 2581.473849,3633.573479"/>
    <poly id="1002529078" type="building" color="255,230,230" fill="1" layer="-1.00" shape="2878.379593,3422.812847 2878.456549,3430.692662 2881.457838,3430.667321 2881.538918,3438.647405 2889.783516,3438.569092 2889.632872,3422.709430 2878.379593,3422.812847"/>
    <poly id="1002529079" type="building" color="255,230,230" fill="1" layer="-1.00" shape="2889.456222,3403.778105 2878.202905,3403.881523 2878.379593,3422.812847 2889.632872,3422.709430 2889.456222,3403.778105"/>
    <poly id="1002529080" type="building" color="255,230,230" fill="1" layer="-1.00" shape="2895.265365,3404.466633 2903.331446,3405.806714 2904.081624,3401.302623 2896.022901,3399.962779 2895.265365,3404.466633"/>
    <poly id="1002529081" type="building" color="255,230,230" fill="1" layer="-1.00" shape="2874.647012,3396.890576 2880.884183,3399.161717 2883.270190,3392.629926 2877.032653,3390.369896 2874.647012,3396.890576"/>
    <poly id="1002529082" type="building" color="255,230,230" fill="1" layer="-1.00" shape="2861.724758,3383.855695 2879.420199,3389.946418 2883.746030,3377.458094 2866.043187,3371.367119 2861.724758,3383.855695"/>
    <poly id="1002529083" type="building" color="255,230,230" fill="1" layer="-1.00" shape="2834.920511,3359.646456 2835.873755,3363.682689 2841.185397,3362.430249 2840.239163,3358.405368 2834.920511,3359.646456"/>
    <poly id="1002529084" type="building" color="255,230,230" fill="1" layer="-1.00" shape="2830.938620,3360.585849 2834.920511,3359.646456 2840.239163,3358.405368 2838.151262,3349.559331 2828.850706,3351.739815 2830.938620,3360.585849"/>
    <poly id="1002529085" type="building" color="255,230,230" fill="1" layer="-1.00" shape="2722.425959,3349.880544 2741.695319,3356.322073 2744.378614,3348.342311 2742.124869,3347.590797 2745.689729,3336.969242 2735.901981,3333.693451 2732.336780,3344.326126 2725.108869,3341.911887 2722.425959,3349.880544"/>
    <poly id="1002529086" type="building" color="255,230,230" fill="1" layer="-1.00" shape="2759.565446,3351.080502 2776.369974,3357.142101 2780.068537,3346.947679 2763.263981,3340.886069 2759.565446,3351.080502"/>
    <poly id="1002529087" type="building" color="255,230,230" fill="1" layer="-1.00" shape="2784.343722,3376.625782 2797.472343,3377.350487 2797.993407,3367.843337 2784.864764,3367.118631 2784.343722,3376.625782"/>
    <poly id="1002529088" type="building" color="255,230,230" fill="1" layer="-1.00" shape="2761.509376,3376.477566 2774.336959,3378.761278 2776.506546,3366.603746 2763.685941,3364.331382 2761.509376,3376.477566"/>
    <poly id="1002529089" type="building" color="255,230,230" fill="1" layer="-1.00" shape="2743.334619,3376.090578 2756.125745,3378.361944 2758.176928,3366.901528 2745.386135,3364.619044 2743.334619,3376.090578"/>