<?xml version="1.0" encoding="UTF-8"?>

<!-- generated on 12/16/25 13:41:48 by Eclipse SUMO netconvert Version 1.5.0
<configuration xmlns:xsi="http://www.w3.org/2001/XMLSchema-instance" xsi:noNamespaceSchemaLocation="http://sumo.dlr.de/xsd/netconvertConfiguration.xsd">

    <input>
        <osm-files value="reichertshofen_raw.osm"/>
    </input>

    <output>
        <output-file value="reichertshofen.net.xml"/>
    </output>

    <projection>
        <proj.utm value="true"/>
    </projection>

    <tls_building>
        <tls.discard-simple value="true"/>
    </tls_building>

    <edge_removal>
        <keep-edges.by-vclass value="passenger"/>
        <remove-edges.isolated value="true"/>
    </edge_removal>

    <junctions>
        <no-turnarounds.tls value="true"/>
        <junctions.join value="true"/>
    </junctions>

    <report>
        <aggregate-warnings value="5"/>
    </report>

</configuration>
-->

<net version="1.3" junctionCornerDetail="5" limitTurnSpeed="5.50" xmlns:xsi="http://www.w3.org/2001/XMLSchema-instance" xsi:noNamespaceSchemaLocation="http://sumo.dlr.de/xsd/net_file.xsd">

    <location netOffset="-678772.01,-5388085.95" convBoundary="0.00,0.00,12055.10,8836.39" origBoundary="11.427749,48.615985,11.592602,48.697951" projParameter="+proj=utm +zone=32 +ellps=WGS84 +datum=WGS84 +units=m +no_defs"/>

    <type id="highway.bridleway" priority="1" numLanes="1" speed="2.78" allow="pedestrian" oneway="1" width="2.00"/>
    <type id="highway.bus_guideway" priority="1" numLanes="1" speed="27.78" allow="bus" oneway="1"/>
    <type id="highway.cycleway" priority="1" numLanes="1" speed="8.33" allow="bicycle" oneway="0" width="1.00"/>
    <type id="highway.footway" priority="1" numLanes="1" speed="2.78" allow="pedestrian" oneway="1" width="2.00"/>
    <type id="highway.ford" priority="1" numLanes="1" speed="2.78" allow="army" oneway="0"/>
    <type id="highway.living_street" priority="2" numLanes="1" speed="2.78" disallow="tram rail_urban rail rail_electric rail_fast ship" oneway="0"/>
    <type id="highway.motorway" priority="14" numLanes="2" speed="39.44" allow="private emergency authority army vip passenger hov taxi bus coach delivery truck trailer motorcycle evehicle custom1 custom2" oneway="1"/>
    <type id="highway.motorway_link" priority="9" numLanes="1" speed="22.22" allow="private emergency authority army vip passenger hov taxi bus coach delivery truck trailer motorcycle evehicle custom1 custom2" oneway="1"/>
    <type id="highway.path" priority="1" numLanes="1" speed="2.78" allow="pedestrian bicycle" oneway="1" width="2.00"/>
    <type id="highway.pedestrian" priority="1" numLanes="1" speed="2.78" allow="pedestrian" oneway="1" width="2.00"/>
    <type id="highway.primary" priority="12" numLanes="2" speed="27.78" disallow="tram rail_urban rail rail_electric rail_fast ship" oneway="0"/>
    <type id="highway.primary_link" priority="7" numLanes="1" speed="22.22" disallow="tram rail_urban rail rail_electric rail_fast ship" oneway="0"/>
    <type id="highway.raceway" priority="15" numLanes="2" speed="83.33" allow="vip" oneway="0"/>
    <type id="highway.residential" priority="3" numLanes="1" speed="13.89" disallow="tram rail_urban rail rail_electric rail_fast ship" oneway="0"/>
    <type id="highway.secondary" priority="11" numLanes="1" speed="27.78" disallow="tram rail_urban rail rail_electric rail_fast ship" oneway="0"/>
    <type id="highway.secondary_link" priority="6" numLanes="1" speed="22.22" disallow="tram rail_urban rail rail_electric rail_fast ship" oneway="0"/>
    <type id="highway.service" priority="1" numLanes="1" speed="5.56" allow="pedestrian delivery bicycle" oneway="0"/>
    <type id="highway.stairs" priority="1" numLanes="1" speed="1.39" allow="pedestrian" oneway="1" width="2.00"/>
    <type id="highway.step" priority="1" numLanes="1" speed="1.39" allow="pedestrian" oneway="1" width="2.00"/>
    <type id="highway.steps" priority="1" numLanes="1" speed="1.39" allow="pedestrian" oneway="1" width="2.00"/>
    <type id="highway.tertiary" priority="10" numLanes="1" speed="22.22" disallow="tram rail_urban rail rail_electric rail_fast ship" oneway="0"/>
    <type id="highway.tertiary_link" priority="5" numLanes="1" speed="22.22" disallow="tram rail_urban rail rail_electric rail_fast ship" oneway="0"/>
    <type id="highway.track" priority="1" numLanes="1" speed="5.56" disallow="tram rail_urban rail rail_electric rail_fast ship" oneway="0"/>
    <type id="highway.trunk" priority="13" numLanes="2" speed="27.78" disallow="pedestrian bicycle tram rail_urban rail rail_electric rail_fast ship" oneway="0"/>
    <type id="highway.trunk_link" priority="8" numLanes="1" speed="22.22" disallow="pedestrian bicycle tram rail_urban rail rail_electric rail_fast ship" oneway="0"/>
    <type id="highway.unclassified" priority="4" numLanes="1" speed="13.89" disallow="tram rail_urban rail rail_electric rail_fast ship" oneway="0"/>
    <type id="highway.unsurfaced" priority="1" numLanes="1" speed="8.33" disallow="tram rail_urban rail rail_electric rail_fast ship" oneway="0"/>
    <type id="railway.highspeed" priority="21" numLanes="1" speed="69.44" allow="rail_fast" oneway="1"/>
    <type id="railway.light_rail" priority="19" numLanes="1" speed="27.78" allow="rail_urban" oneway="1"/>
    <type id="railway.preserved" priority="16" numLanes="1" speed="27.78" allow="rail" oneway="1"/>
    <type id="railway.rail" priority="20" numLanes="1" speed="44.44" allow="rail" oneway="1"/>
    <type id="railway.subway" priority="18" numLanes="1" speed="27.78" allow="rail_urban" oneway="1"/>
    <type id="railway.tram" priority="17" numLanes="1" speed="13.89" allow="tram" oneway="1"/>

    <edge id=":10815010853_0" function="internal">
        <lane id=":10815010853_0_0" index="0" disallow="tram rail_urban rail rail_electric rail_fast ship" speed="27.78" length="0.31" shape="1719.70,5200.74 1719.42,5200.85"/>
    </edge>
    <edge id=":10815010853_1" function="internal">
        <lane id=":10815010853_1_0" index="0" disallow="tram rail_urban rail rail_electric rail_fast ship" speed="27.78" length="0.29" shape="1718.28,5197.86 1718.54,5197.76"/>
    </edge>
    <edge id=":10815010854_0" function="internal">
        <lane id=":10815010854_0_0" index="0" disallow="tram rail_urban rail rail_electric rail_fast ship" speed="27.78" length="0.30" shape="1895.27,5132.37 1894.98,5132.48"/>
    </edge>
    <edge id=":10815010854_1" function="internal">
        <lane id=":10815010854_1_0" index="0" disallow="tram rail_urban rail rail_electric rail_fast ship" speed="27.78" length="0.30" shape="1893.82,5129.50 1894.10,5129.39"/>
    </edge>
    <edge id=":10815010855_0" function="internal">
        <lane id=":10815010855_0_0" index="0" disallow="tram rail_urban rail rail_electric rail_fast ship" speed="19.44" length="0.31" shape="2279.36,4984.41 2279.07,4984.52"/>
    </edge>
    <edge id=":10815010855_1" function="internal">
        <lane id=":10815010855_1_0" index="0" disallow="tram rail_urban rail rail_electric rail_fast ship" speed="19.44" length="0.29" shape="2277.94,4981.53 2278.21,4981.43"/>
    </edge>
    <edge id=":10815010857_0" function="internal">
        <lane id=":10815010857_0_0" index="0" disallow="tram rail_urban rail rail_electric rail_fast ship" speed="13.89" length="0.27" shape="3313.55,4184.84 3313.32,4184.99"/>
    </edge>
    <edge id=":10815010857_1" function="internal">
        <lane id=":10815010857_1_0" index="0" disallow="tram rail_urban rail rail_electric rail_fast ship" speed="13.89" length="0.31" shape="3311.53,4182.34 3311.79,4182.17"/>
    </edge>
    <edge id=":10815010858_0" function="internal">
        <lane id=":10815010858_0_0" index="0" disallow="tram rail_urban rail rail_electric rail_fast ship" speed="15.28" length="0.30" shape="3510.94,3677.79 3510.94,3677.49"/>
    </edge>
    <edge id=":10815010858_1" function="internal">
        <lane id=":10815010858_1_0" index="0" disallow="tram rail_urban rail rail_electric rail_fast ship" speed="15.28" length="0.19" shape="3514.14,3677.57 3514.14,3677.76"/>
    </edge>
    <edge id=":11054176746_0" function="internal">
        <lane id=":11054176746_0_0" index="0" disallow="tram rail_urban rail rail_electric rail_fast ship" speed="13.89" length="0.29" shape="2720.04,3701.96 2719.75,3701.89"/>
    </edge>
    <edge id=":11054176746_1" function="internal">
        <lane id=":11054176746_1_0" index="0" disallow="tram rail_urban rail rail_electric rail_fast ship" speed="13.89" length="0.30" shape="2720.54,3698.79 2720.84,3698.86"/>
    </edge>
    <edge id=":1109680065_0" function="internal">
        <lane id=":1109680065_0_0" index="0" disallow="tram rail_urban rail rail_electric rail_fast ship" speed="3.65" length="4.67" shape="6795.74,3924.84 6796.27,3923.49 6796.97,3922.93 6797.83,3923.16 6798.87,3924.16"/>
    </edge>
    <edge id=":1109680213_0" function="internal">
        <lane id=":1109680213_0_0" index="0" disallow="tram rail_urban rail rail_electric rail_fast ship" speed="13.89" length="0.27" shape="6526.93,3874.76 6526.69,3874.63"/>
    </edge>
    <edge id=":1109680213_1" function="internal">
        <lane id=":1109680213_1_0" index="0" disallow="tram rail_urban rail rail_electric rail_fast ship" speed="13.89" length="0.31" shape="6528.24,3871.83 6528.51,3871.98"/>
    </edge>
    <edge id=":1109680362_0" function="internal">
        <lane id=":1109680362_0_0" index="0" disallow="tram rail_urban rail rail_electric rail_fast ship" speed="13.89" length="0.14" shape="6462.99,4126.64 6462.95,4126.78"/>
    </edge>
    <edge id=":1109680362_1" function="internal">
        <lane id=":1109680362_1_0" index="0" disallow="tram rail_urban rail rail_electric rail_fast ship" speed="13.89" length="0.28" shape="6459.83,4126.06 6459.90,4125.79"/>
    </edge>
    <edge id=":1109680435_0" function="internal">
        <lane id=":1109680435_0_0" index="0" disallow="tram rail_urban rail rail_electric rail_fast ship" speed="3.65" length="4.67" shape="8366.50,3438.06 8367.88,3438.49 8368.49,3439.15 8368.33,3440.03 8367.40,3441.13"/>
    </edge>
    <edge id=":1109680630_0" function="internal">
        <lane id=":1109680630_0_0" index="0" disallow="tram rail_urban rail rail_electric rail_fast ship" speed="23.61" length="7.54" shape="6787.12,3169.96 6785.68,3168.29 6784.10,3167.71 6782.44,3167.16 6780.78,3165.63"/>
        <lane id=":1109680630_0_1" index="1" disallow="tram rail_urban rail rail_electric rail_fast ship" speed="23.61" length="7.54" shape="6787.12,3169.96 6786.12,3168.07 6785.40,3166.80 6784.62,3165.58 6783.41,3163.82"/>
    </edge>
    <edge id=":1109680630_2" function="internal">
        <lane id=":1109680630_2_0" index="0" disallow="tram rail_urban rail rail_electric rail_fast ship" speed="23.61" length="7.56" shape="6786.05,3162.00 6787.32,3163.85 6788.14,3165.15 6788.90,3166.48 6789.95,3168.47"/>
    </edge>
    <edge id=":1109692383_0" function="internal">
        <lane id=":1109692383_0_0" index="0" disallow="tram rail_urban rail rail_electric rail_fast ship" speed="3.65" length="4.67" shape="7420.56,3418.95 7421.69,3418.05 7422.57,3417.91 7423.21,3418.54 7423.60,3419.93"/>
    </edge>
    <edge id=":1109692680_0" function="internal">
        <lane id=":1109692680_0_0" index="0" disallow="tram rail_urban rail rail_electric rail_fast ship" speed="27.78" length="0.50" shape="7475.99,3920.37 7475.87,3920.46 7475.79,3920.53 7475.72,3920.60 7475.63,3920.72"/>
    </edge>
    <edge id=":1109692680_1" function="internal">
        <lane id=":1109692680_1_0" index="0" disallow="tram rail_urban rail rail_electric rail_fast ship" speed="12.82" length="1.51" shape="7473.06,3918.83 7473.33,3918.47 7473.53,3918.24 7473.76,3918.04 7474.12,3917.77"/>
    </edge>
    <edge id=":1109703417_0" function="internal">
        <lane id=":1109703417_0_0" index="0" disallow="tram rail_urban rail rail_electric rail_fast ship" speed="13.89" length="13.92" shape="5331.83,2900.26 5329.21,2902.69 5326.82,2905.08 5324.51,2907.55 5322.15,2910.24"/>
    </edge>
    <edge id=":1109703417_1" function="internal">
        <lane id=":1109703417_1_0" index="0" disallow="tram rail_urban rail rail_electric rail_fast ship" speed="9.07" length="5.37" shape="5331.83,2900.26 5328.89,2902.17 5327.08,2902.57"/>
    </edge>
    <edge id=":1109703417_2" function="internal">
        <lane id=":1109703417_2_0" index="0" disallow="tram rail_urban rail rail_electric rail_fast ship" speed="3.65" length="2.34" shape="5331.83,2900.26 5330.41,2900.46 5329.58,2900.13"/>
    </edge>
    <edge id=":1109703417_9" function="internal">
        <lane id=":1109703417_9_0" index="0" disallow="tram rail_urban rail rail_electric rail_fast ship" speed="9.07" length="8.99" shape="5327.08,2902.57 5325.69,2902.87 5322.24,2902.36 5318.54,2900.63"/>
    </edge>
    <edge id=":1109703417_10" function="internal">
        <lane id=":1109703417_10_0" index="0" disallow="tram rail_urban rail rail_electric rail_fast ship" speed="3.65" length="2.34" shape="5329.58,2900.13 5329.34,2899.27 5329.70,2897.87"/>
    </edge>
    <edge id=":1109703417_3" function="internal">
        <lane id=":1109703417_3_0" index="0" disallow="tram rail_urban rail rail_electric rail_fast ship" speed="7.74" length="10.24" shape="5320.21,2897.90 5322.91,2899.18 5325.40,2899.61 5327.66,2899.17 5329.70,2897.87"/>
    </edge>
    <edge id=":1109703417_4" function="internal">
        <lane id=":1109703417_4_0" index="0" disallow="tram rail_urban rail rail_electric rail_fast ship" speed="7.74" length="14.86" shape="5320.21,2897.90 5323.42,2900.55 5324.82,2903.50 5324.39,2906.73 5322.15,2910.24"/>
    </edge>
    <edge id=":1109703417_5" function="internal">
        <lane id=":1109703417_5_0" index="0" disallow="tram rail_urban rail rail_electric rail_fast ship" speed="3.65" length="4.67" shape="5320.21,2897.90 5320.82,2899.20 5320.74,2900.10 5319.98,2900.57 5318.54,2900.63"/>
    </edge>
    <edge id=":1109703417_6" function="internal">
        <lane id=":1109703417_6_0" index="0" disallow="tram rail_urban rail rail_electric rail_fast ship" speed="6.18" length="9.05" shape="5319.72,2908.15 5321.09,2906.01 5321.35,2904.04 5320.50,2902.25 5318.54,2900.63"/>
    </edge>
    <edge id=":1109703417_7" function="internal">
        <lane id=":1109703417_7_0" index="0" disallow="tram rail_urban rail rail_electric rail_fast ship" speed="13.89" length="14.34" shape="5319.72,2908.15 5322.14,2905.42 5324.54,2902.84 5327.03,2900.35 5329.70,2897.87"/>
    </edge>
    <edge id=":1109703417_8" function="internal">
        <lane id=":1109703417_8_0" index="0" disallow="tram rail_urban rail rail_electric rail_fast ship" speed="3.65" length="2.34" shape="5319.72,2908.15 5321.11,2907.77 5321.98,2907.99"/>
    </edge>
    <edge id=":1109703417_11" function="internal">
        <lane id=":1109703417_11_0" index="0" disallow="tram rail_urban rail rail_electric rail_fast ship" speed="3.65" length="2.34" shape="5321.98,2907.99 5322.33,2908.81 5322.15,2910.24"/>
    </edge>
    <edge id=":1109703423_0" function="internal">
        <lane id=":1109703423_0_0" index="0" disallow="tram rail_urban rail rail_electric rail_fast ship" speed="3.65" length="4.67" shape="5266.05,2740.43 5267.37,2739.85 5268.26,2739.95 5268.72,2740.71 5268.74,2742.16"/>
    </edge>
    <edge id=":1109703425_0" function="internal">
        <lane id=":1109703425_0_0" index="0" disallow="tram rail_urban rail rail_electric rail_fast ship" speed="3.65" length="4.67" shape="5071.89,2845.17 5070.66,2845.92 5069.77,2845.95 5069.21,2845.25 5068.99,2843.82"/>
    </edge>
    <edge id=":1109703464_0" function="internal">
        <lane id=":1109703464_0_0" index="0" disallow="tram rail_urban rail rail_electric rail_fast ship" speed="13.89" length="14.53" shape="5246.87,2786.63 5234.74,2778.62"/>
    </edge>
    <edge id=":1109703464_1" function="internal">
        <lane id=":1109703464_1_0" index="0" disallow="tram rail_urban rail rail_electric rail_fast ship" speed="8.02" length="6.05" shape="5246.87,2786.63 5243.93,2784.08 5242.97,2782.14"/>
    </edge>
    <edge id=":1109703464_2" function="internal">
        <lane id=":1109703464_2_0" index="0" disallow="tram rail_urban rail rail_electric rail_fast ship" speed="3.65" length="2.34" shape="5246.87,2786.63 5246.29,2785.31 5246.39,2784.42"/>
    </edge>
    <edge id=":1109703464_9" function="internal">
        <lane id=":1109703464_9_0" index="0" disallow="tram rail_urban rail rail_electric rail_fast ship" speed="8.02" length="8.21" shape="5242.97,2782.14 5242.51,2781.20 5242.62,2777.97 5244.26,2774.40"/>
    </edge>
    <edge id=":1109703464_10" function="internal">
        <lane id=":1109703464_10_0" index="0" disallow="tram rail_urban rail rail_electric rail_fast ship" speed="3.65" length="2.34" shape="5246.39,2784.42 5247.15,2783.96 5248.60,2783.93"/>
    </edge>
    <edge id=":1109703464_3" function="internal">
        <lane id=":1109703464_3_0" index="0" disallow="tram rail_urban rail rail_electric rail_fast ship" speed="6.53" length="9.10" shape="5246.95,2776.13 5245.90,2778.41 5245.83,2780.47 5246.73,2782.31 5248.60,2783.93"/>
    </edge>
    <edge id=":1109703464_4" function="internal">
        <lane id=":1109703464_4_0" index="0" disallow="tram rail_urban rail rail_electric rail_fast ship" speed="7.95" length="14.29" shape="5246.95,2776.13 5244.38,2779.10 5241.49,2780.51 5238.28,2780.35 5234.74,2778.62"/>
    </edge>
    <edge id=":1109703464_5" function="internal">
        <lane id=":1109703464_5_0" index="0" disallow="tram rail_urban rail rail_electric rail_fast ship" speed="3.65" length="4.67" shape="5246.95,2776.13 5245.63,2776.70 5244.74,2776.61 5244.28,2775.84 5244.26,2774.40"/>
    </edge>
    <edge id=":1109703464_6" function="internal">
        <lane id=":1109703464_6_0" index="0" disallow="tram rail_urban rail rail_electric rail_fast ship" speed="6.45" length="9.03" shape="5236.54,2775.98 5238.78,2777.07 5240.81,2777.17 5242.63,2776.28 5244.26,2774.40"/>
    </edge>
    <edge id=":1109703464_7" function="internal">
        <lane id=":1109703464_7_0" index="0" disallow="tram rail_urban rail rail_electric rail_fast ship" speed="13.89" length="14.44" shape="5236.54,2775.98 5248.60,2783.93"/>
    </edge>
    <edge id=":1109703464_8" function="internal">
        <lane id=":1109703464_8_0" index="0" disallow="tram rail_urban rail rail_electric rail_fast ship" speed="3.65" length="2.34" shape="5236.54,2775.98 5237.09,2777.31 5236.97,2778.20"/>
    </edge>
    <edge id=":1109703464_11" function="internal">
        <lane id=":1109703464_11_0" index="0" disallow="tram rail_urban rail rail_electric rail_fast ship" speed="3.65" length="2.34" shape="5236.97,2778.20 5236.19,2778.64 5234.74,2778.62"/>
    </edge>
    <edge id=":1109703500_0" function="internal">
        <lane id=":1109703500_0_0" index="0" disallow="tram rail_urban rail rail_electric rail_fast ship" speed="13.89" length="15.88" shape="5086.63,2912.79 5083.20,2910.81 5079.51,2908.95 5075.69,2907.72 5071.92,2907.59"/>
    </edge>
    <edge id=":1109703500_1" function="internal">
        <lane id=":1109703500_1_0" index="0" disallow="tram rail_urban rail rail_electric rail_fast ship" speed="7.47" length="20.07" shape="5086.63,2912.79 5081.38,2908.95 5079.95,2905.72 5082.32,2903.11 5088.51,2901.11"/>
    </edge>
    <edge id=":1109703500_2" function="internal">
        <lane id=":1109703500_2_0" index="0" disallow="tram rail_urban rail rail_electric rail_fast ship" speed="3.65" length="4.67" shape="5086.63,2912.79 5086.00,2911.49 5086.05,2910.60 5086.80,2910.11 5088.24,2910.02"/>
    </edge>
    <edge id=":1109703500_3" function="internal">
        <lane id=":1109703500_3_0" index="0" disallow="tram rail_urban rail rail_electric rail_fast ship" speed="5.46" length="9.92" shape="5089.17,2904.24 5086.11,2905.23 5084.93,2906.52 5085.64,2908.12 5088.24,2910.02"/>
    </edge>
    <edge id=":1109703500_4" function="internal">
        <lane id=":1109703500_4_0" index="0" disallow="tram rail_urban rail rail_electric rail_fast ship" speed="13.89" length="17.57" shape="5089.17,2904.24 5071.92,2907.59"/>
    </edge>
    <edge id=":1109703500_5" function="internal">
        <lane id=":1109703500_5_0" index="0" disallow="tram rail_urban rail rail_electric rail_fast ship" speed="3.65" length="2.34" shape="5089.17,2904.24 5087.83,2903.70 5087.27,2903.00"/>
    </edge>
    <edge id=":1109703500_9" function="internal">
        <lane id=":1109703500_9_0" index="0" disallow="tram rail_urban rail rail_electric rail_fast ship" speed="3.65" length="2.34" shape="5087.27,2903.00 5087.50,2902.14 5088.51,2901.11"/>
    </edge>
    <edge id=":1109703500_6" function="internal">
        <lane id=":1109703500_6_0" index="0" disallow="tram rail_urban rail rail_electric rail_fast ship" speed="13.89" length="17.41" shape="5071.42,2904.43 5088.51,2901.11"/>
    </edge>
    <edge id=":1109703500_7" function="internal">
        <lane id=":1109703500_7_0" index="0" disallow="tram rail_urban rail rail_electric rail_fast ship" speed="13.89" length="5.45" shape="5071.42,2904.43 5075.52,2904.62 5076.81,2905.01"/>
    </edge>
    <edge id=":1109703500_8" function="internal">
        <lane id=":1109703500_8_0" index="0" disallow="tram rail_urban rail rail_electric rail_fast ship" speed="3.65" length="2.34" shape="5071.42,2904.43 5072.73,2905.03 5073.25,2905.76"/>
    </edge>
    <edge id=":1109703500_10" function="internal">
        <lane id=":1109703500_10_0" index="0" disallow="tram rail_urban rail rail_electric rail_fast ship" speed="13.89" length="12.51" shape="5076.81,2905.01 5080.06,2905.99 5084.48,2907.98 5088.24,2910.02"/>
    </edge>
    <edge id=":1109703500_11" function="internal">
        <lane id=":1109703500_11_0" index="0" disallow="tram rail_urban rail rail_electric rail_fast ship" speed="3.65" length="2.34" shape="5073.25,2905.76 5072.98,2906.61 5071.92,2907.59"/>
    </edge>
    <edge id=":1109703544_0" function="internal">
        <lane id=":1109703544_0_0" index="0" disallow="tram rail_urban rail rail_electric rail_fast ship" speed="13.89" length="14.74" shape="5098.29,3102.68 5085.85,3094.77"/>
    </edge>
    <edge id=":1109703544_1" function="internal">
        <lane id=":1109703544_1_0" index="0" disallow="tram rail_urban rail rail_electric rail_fast ship" speed="9.32" length="5.54" shape="5098.29,3102.68 5095.67,3100.34 5094.74,3098.53"/>
    </edge>
    <edge id=":1109703544_2" function="internal">
        <lane id=":1109703544_2_0" index="0" disallow="tram rail_urban rail rail_electric rail_fast ship" speed="3.65" length="2.34" shape="5098.29,3102.68 5097.70,3101.36 5097.79,3100.47"/>
    </edge>
    <edge id=":1109703544_9" function="internal">
        <lane id=":1109703544_9_0" index="0" disallow="tram rail_urban rail rail_electric rail_fast ship" speed="9.32" length="9.36" shape="5094.74,3098.53 5094.14,3097.35 5093.70,3093.70 5094.34,3089.39"/>
    </edge>
    <edge id=":1109703544_10" function="internal">
        <lane id=":1109703544_10_0" index="0" disallow="tram rail_urban rail rail_electric rail_fast ship" speed="3.65" length="2.34" shape="5097.79,3100.47 5098.56,3100.01 5100.00,3099.98"/>
    </edge>
    <edge id=":1109703544_3" function="internal">
        <lane id=":1109703544_3_0" index="0" disallow="tram rail_urban rail rail_electric rail_fast ship" speed="8.04" length="10.87" shape="5097.44,3090.18 5096.93,3093.43 5097.18,3096.14 5098.21,3098.33 5100.00,3099.98"/>
    </edge>
    <edge id=":1109703544_4" function="internal">
        <lane id=":1109703544_4_0" index="0" disallow="tram rail_urban rail rail_electric rail_fast ship" speed="7.55" length="15.57" shape="5097.44,3090.18 5095.73,3094.33 5093.23,3096.48 5089.93,3096.62 5085.85,3094.77"/>
    </edge>
    <edge id=":1109703544_5" function="internal">
        <lane id=":1109703544_5_0" index="0" disallow="tram rail_urban rail rail_electric rail_fast ship" speed="3.65" length="4.67" shape="5097.44,3090.18 5096.37,3091.14 5095.49,3091.33 5094.82,3090.75 5094.34,3089.39"/>
    </edge>
    <edge id=":1109703544_6" function="internal">
        <lane id=":1109703544_6_0" index="0" disallow="tram rail_urban rail rail_electric rail_fast ship" speed="5.93" length="9.10" shape="5087.56,3092.07 5089.95,3093.15 5091.88,3093.07 5093.34,3091.81 5094.34,3089.39"/>
    </edge>
    <edge id=":1109703544_7" function="internal">
        <lane id=":1109703544_7_0" index="0" disallow="tram rail_urban rail rail_electric rail_fast ship" speed="13.89" length="14.74" shape="5087.56,3092.07 5100.00,3099.98"/>
    </edge>
    <edge id=":1109703544_8" function="internal">
        <lane id=":1109703544_8_0" index="0" disallow="tram rail_urban rail rail_electric rail_fast ship" speed="3.65" length="2.34" shape="5087.56,3092.07 5088.15,3093.39 5088.06,3094.28"/>
    </edge>
    <edge id=":1109703544_11" function="internal">
        <lane id=":1109703544_11_0" index="0" disallow="tram rail_urban rail rail_electric rail_fast ship" speed="3.65" length="2.34" shape="5088.06,3094.28 5087.29,3094.74 5085.85,3094.77"/>
    </edge>
    <edge id=":1109703593_0" function="internal">
        <lane id=":1109703593_0_0" index="0" disallow="tram rail_urban rail rail_electric rail_fast ship" speed="13.89" length="0.31" shape="5027.26,2700.83 5027.18,2701.14"/>
    </edge>
    <edge id=":1109703593_1" function="internal">
        <lane id=":1109703593_1_0" index="0" disallow="tram rail_urban rail rail_electric rail_fast ship" speed="13.89" length="0.26" shape="5024.09,2700.32 5024.15,2700.07"/>
    </edge>
    <edge id=":1109703597_0" function="internal">
        <lane id=":1109703597_0_0" index="0" disallow="tram rail_urban rail rail_electric rail_fast ship" speed="8.24" length="11.10" shape="5327.04,2797.92 5324.03,2796.35 5321.31,2795.67 5318.85,2795.88 5316.68,2796.98"/>
    </edge>
    <edge id=":1109703597_1" function="internal">
        <lane id=":1109703597_1_0" index="0" disallow="tram rail_urban rail rail_electric rail_fast ship" speed="7.52" length="15.76" shape="5327.04,2797.92 5323.57,2794.94 5322.34,2791.87 5323.35,2788.72 5326.58,2785.48"/>
    </edge>
    <edge id=":1109703597_2" function="internal">
        <lane id=":1109703597_2_0" index="0" disallow="tram rail_urban rail rail_electric rail_fast ship" speed="3.65" length="4.67" shape="5327.04,2797.92 5326.46,2796.60 5326.56,2795.71 5327.33,2795.26 5328.77,2795.23"/>
    </edge>
    <edge id=":1109703597_3" function="internal">
        <lane id=":1109703597_3_0" index="0" disallow="tram rail_urban rail rail_electric rail_fast ship" speed="5.88" length="9.11" shape="5328.51,2788.04 5326.64,2789.91 5326.06,2791.73 5326.77,2793.51 5328.77,2795.23"/>
    </edge>
    <edge id=":1109703597_4" function="internal">
        <lane id=":1109703597_4_0" index="0" disallow="tram rail_urban rail rail_electric rail_fast ship" speed="13.89" length="14.83" shape="5328.51,2788.04 5316.68,2796.98"/>
    </edge>
    <edge id=":1109703597_5" function="internal">
        <lane id=":1109703597_5_0" index="0" disallow="tram rail_urban rail rail_electric rail_fast ship" speed="3.65" length="2.34" shape="5328.51,2788.04 5327.07,2788.12 5326.27,2787.72"/>
    </edge>
    <edge id=":1109703597_9" function="internal">
        <lane id=":1109703597_9_0" index="0" disallow="tram rail_urban rail rail_electric rail_fast ship" speed="3.65" length="2.34" shape="5326.27,2787.72 5326.11,2786.84 5326.58,2785.48"/>
    </edge>
    <edge id=":1109703597_6" function="internal">
        <lane id=":1109703597_6_0" index="0" disallow="tram rail_urban rail rail_electric rail_fast ship" speed="13.89" length="14.85" shape="5314.74,2794.44 5326.58,2785.48"/>
    </edge>
    <edge id=":1109703597_7" function="internal">
        <lane id=":1109703597_7_0" index="0" disallow="tram rail_urban rail rail_electric rail_fast ship" speed="9.51" length="5.55" shape="5314.74,2794.44 5317.81,2792.81 5319.87,2792.56"/>
    </edge>
    <edge id=":1109703597_8" function="internal">
        <lane id=":1109703597_8_0" index="0" disallow="tram rail_urban rail rail_electric rail_fast ship" speed="3.65" length="2.34" shape="5314.74,2794.44 5316.18,2794.34 5316.98,2794.74"/>
    </edge>
    <edge id=":1109703597_10" function="internal">
        <lane id=":1109703597_10_0" index="0" disallow="tram rail_urban rail rail_electric rail_fast ship" speed="9.51" length="9.48" shape="5319.87,2792.56 5321.18,2792.40 5324.83,2793.21 5328.77,2795.23"/>
    </edge>
    <edge id=":1109703597_11" function="internal">
        <lane id=":1109703597_11_0" index="0" disallow="tram rail_urban rail rail_electric rail_fast ship" speed="3.65" length="2.34" shape="5316.98,2794.74 5317.15,2795.62 5316.68,2796.98"/>
    </edge>
    <edge id=":1109703659_0" function="internal">
        <lane id=":1109703659_0_0" index="0" disallow="tram rail_urban rail rail_electric rail_fast ship" speed="13.89" length="13.25" shape="5026.33,3011.64 5024.71,3008.55 5023.08,3005.85 5021.22,3003.32 5018.90,3000.74"/>
    </edge>
    <edge id=":1109703659_1" function="internal">
        <lane id=":1109703659_1_0" index="0" disallow="tram rail_urban rail rail_electric rail_fast ship" speed="7.65" length="5.67" shape="5026.33,3011.64 5024.95,3007.57 5025.12,3006.21"/>
    </edge>
    <edge id=":1109703659_2" function="internal">
        <lane id=":1109703659_2_0" index="0" disallow="tram rail_urban rail rail_electric rail_fast ship" speed="3.65" length="2.34" shape="5026.33,3011.64 5026.50,3010.20 5027.03,3009.48"/>
    </edge>
    <edge id=":1109703659_9" function="internal">
        <lane id=":1109703659_9_0" index="0" disallow="tram rail_urban rail rail_electric rail_fast ship" speed="7.65" length="9.47" shape="5025.12,3006.21 5025.36,3004.32 5027.55,3001.89 5031.53,3000.28"/>
    </edge>
    <edge id=":1109703659_10" function="internal">
        <lane id=":1109703659_10_0" index="0" disallow="tram rail_urban rail rail_electric rail_fast ship" speed="3.65" length="2.34" shape="5027.03,3009.48 5027.93,3009.48 5029.18,3010.19"/>
    </edge>