<?xml version="1.0" encoding="UTF-8"?>
<!-- generated on 2025-12-16 13:42:26.516882 by randomTrips.py v1_5_0+0000-3a3be608d2
  options: -n reichertshofen.net.xml -r reichertshofen.trips.xml -e 3600 -p 2
-->
<routes xmlns:xsi="http://www.w3.org/2001/XMLSchema-instance" xsi:noNamespaceSchemaLocation="http://sumo.dlr.de/xsd/routes_file.xsd">
    <trip id="0" depart="0.00" from="-152273623" to="-32028611#3"/>
    <trip id="1" depart="2.00" from="-48656472" to="30721318#0"/>
    <trip id="2" depart="4.00" from="-630882106" to="-30137547"/>
    <trip id="3" depart="6.00" from="32028609#1" to="-24894647#0"/>
    <trip id="4" depart="8.00" from="-32053596#0" to="-125805483#2"/>
    <trip id="5" depart="10.00" from="-30712640#0" to="23340309"/>
    <trip id="6" depart="12.00" from="1448445038#0" to="-192094831"/>
    <trip id="7" depart="14.00" from="-1265012194#0" to="-30721318#3"/>
    <trip id="8" depart="16.00" from="42857615" to="51095540#2"/>
    <trip id="9" depart="18.00" from="-30721322#3" to="-30251355#2"/>
    <trip id="10" depart="20.00" from="888507330#0" to="23340807#0"/>
    <trip id="11" depart="22.00" from="-292920910" to="-32186396"/>
    <trip id="12" depart="24.00" from="-32028602#0" to="47266123#1"/>
    <trip id="13" depart="26.00" from="48656471#3" to="-114374241#1"/>
    <trip id="14" depart="28.00" from="24569551" to="-972829806"/>
    <trip id="15" depart="30.00" from="-32028608#0" to="1162859915#0"/>
    <trip id="16" depart="32.00" from="27826254#0" to="899424825#1"/>
    <trip id="17" depart="34.00" from="888507327" to="-114374241#1"/>
    <trip id="18" depart="36.00" from="-30712623#2" to="-967017666"/>
    <trip id="19" depart="38.00" from="-1419622531#1" to="85506818#2"/>
    <trip id="20" depart="40.00" from="-41493969" to="140244884"/>
    <trip id="21" depart="42.00" from="114374237" to="-114837456#1"/>
    <trip id="22" depart="44.00" from="-48656474#0" to="140244891#0"/>
    <trip id="23" depart="46.00" from="312801918" to="859855878"/>
    <trip id="24" depart="48.00" from="-246543144#2" to="-140244885#2"/>
    <trip id="25" depart="50.00" from="-24890471#0" to="-30324404#2"/>
    <trip id="26" depart="52.00" from="-972829798" to="-866596959"/>
    <trip id="27" depart="54.00" from="-30251326" to="-30899688"/>
    <trip id="28" depart="56.00" from="-653576411" to="-30712656"/>
    <trip id="29" depart="58.00" from="-95734888#0" to="420331395"/>
    <trip id="30" depart="60.00" from="-32186352" to="-1162859915#0"/>
    <trip id="31" depart="62.00" from="-49606118" to="685269603"/>
    <trip id="32" depart="64.00" from="47050736" to="-32028602#0"/>
    <trip id="33" depart="66.00" from="378515810" to="-33334628#2"/>
    <trip id="34" depart="68.00" from="482474140" to="-972242378#1"/>
    <trip id="35" depart="70.00" from="95734889#0" to="-1265012195#0"/>
    <trip id="36" depart="72.00" from="-644290036" to="48656474#3"/>
    <trip id="37" depart="74.00" from="100771321" to="32053595#10"/>
    <trip id="38" depart="76.00" from="-630882104#0" to="95739005#1"/>
    <trip id="39" depart="78.00" from="-30171283#1" to="32028603"/>
    <trip id="40" depart="80.00" from="-32053595#8" to="-1265012186"/>
    <trip id="41" depart="82.00" from="-95734873" to="30899702#1"/>
    <trip id="42" depart="84.00" from="-95739005#1" to="400729929#1"/>
    <trip id="43" depart="86.00" from="95734888#1" to="482474139#0"/>
    <trip id="44" depart="88.00" from="1265012194#3" to="-32186350#2"/>
    <trip id="45" depart="90.00" from="140244892" to="899424844#0"/>
    <trip id="46" depart="92.00" from="-33334628#2" to="-743760223#0"/>
    <trip id="47" depart="94.00" from="95734871" to="374848339"/>
    <trip id="48" depart="96.00" from="-192094830#1" to="100397099"/>
    <trip id="49" depart="98.00" from="-30251322" to="159093284#1"/>
    <trip id="50" depart="100.00" from="1265012188#0" to="-30171280"/>
    <trip id="51" depart="102.00" from="41493970#0" to="30171286#1"/>
    <trip id="52" depart="104.00" from="-1424414779#2" to="-150589063"/>
    <trip id="53" depart="106.00" from="-352554318" to="-29323117#10"/>
    <trip id="54" depart="108.00" from="30171286#2" to="-866697467"/>
    <trip id="55" depart="110.00" from="-31863292" to="-136476694"/>
    <trip id="56" depart="112.00" from="-30899688" to="-125814932#2"/>
    <trip id="57" depart="114.00" from="30137546#0" to="-30712639#2"/>
    <trip id="58" depart="116.00" from="25395677" to="-32028602#2"/>
    <trip id="59" depart="118.00" from="888507348" to="-33334628#0"/>
    <trip id="60" depart="120.00" from="-32053597#1" to="33539525"/>
    <trip id="61" depart="122.00" from="-1265012194#2" to="-33374577#0"/>
    <trip id="62" depart="124.00" from="230489447" to="32186383#0"/>
    <trip id="63" depart="126.00" from="-192082795#2" to="51095540#0"/>
    <trip id="64" depart="128.00" from="-29323117#13" to="32186383#1"/>
    <trip id="65" depart="130.00" from="-181615144#1" to="-30324407#4"/>
    <trip id="66" depart="132.00" from="30721318#1" to="-20124557#0"/>
    <trip id="67" depart="134.00" from="-33334608#0" to="-192094830#0"/>
    <trip id="68" depart="136.00" from="42749526" to="-30137546#1"/>
    <trip id="69" depart="138.00" from="32028616" to="-33766833"/>
    <trip id="70" depart="140.00" from="30251331#0" to="27826254#2"/>
    <trip id="71" depart="142.00" from="-140244892" to="-32028612#0"/>
    <trip id="72" depart="144.00" from="-244588222" to="859855877"/>
    <trip id="73" depart="146.00" from="-30712639#3" to="33844573"/>
    <trip id="74" depart="148.00" from="-30712623#2" to="-27826254#2"/>
    <trip id="75" depart="150.00" from="-32053597#4" to="-24510383"/>
    <trip id="76" depart="152.00" from="-33334620#1" to="84059627#1"/>
    <trip id="77" depart="154.00" from="888507326" to="-30721306"/>
    <trip id="78" depart="156.00" from="-30712644" to="1265012195#0"/>
    <trip id="79" depart="158.00" from="-30721318#4" to="-30712639#2"/>
    <trip id="80" depart="160.00" from="49606112#1" to="-152273625"/>
    <trip id="81" depart="162.00" from="-202833376#0" to="1265012192"/>
    <trip id="82" depart="164.00" from="119027217#3" to="-41493968"/>
    <trip id="83" depart="166.00" from="-32028603" to="374848339"/>
    <trip id="84" depart="168.00" from="-24890471#1" to="-144777543#0"/>
    <trip id="85" depart="170.00" from="30712640#0" to="30171283#3"/>
    <trip id="86" depart="172.00" from="-859855879#1" to="33766835#0"/>
    <trip id="87" depart="174.00" from="-1177291482#0" to="30171283#0"/>
    <trip id="88" depart="176.00" from="-30721322#2" to="-192095423#0"/>
    <trip id="89" depart="178.00" from="150521993#0" to="-24569616#1"/>
    <trip id="90" depart="180.00" from="-967017665#0" to="42749529#1"/>
    <trip id="91" depart="182.00" from="152273620" to="-32186368#1"/>
    <trip id="92" depart="184.00" from="-30721318#3" to="30171286#3"/>
    <trip id="93" depart="186.00" from="-159093284#0" to="-33374554#2"/>
    <trip id="94" depart="188.00" from="30478489#2" to="-33357239#1"/>
    <trip id="95" depart="190.00" from="30712632" to="1162859912"/>
    <trip id="96" depart="192.00" from="159093284#0" to="-49141004#1"/>
    <trip id="97" depart="194.00" from="-140244883#1" to="33334612"/>
    <trip id="98" depart="196.00" from="244588737" to="864503829"/>
    <trip id="99" depart="198.00" from="23340807#0" to="-144776106"/>
    <trip id="100" depart="200.00" from="-859855879#0" to="-1177291482#0"/>
    <trip id="101" depart="202.00" from="-1178430873#2" to="-1004525374"/>
    <trip id="102" depart="204.00" from="-192082795#2" to="30283733#2"/>
    <trip id="103" depart="206.00" from="29323117#0" to="-29323117#9"/>
    <trip id="104" depart="208.00" from="62330525" to="30721320#1"/>
    <trip id="105" depart="210.00" from="-32186350#1" to="482474139#0"/>
    <trip id="106" depart="212.00" from="-140248716" to="-969759580"/>
    <trip id="107" depart="214.00" from="-95734884#0" to="125814932#0"/>
    <trip id="108" depart="216.00" from="-33967560#0" to="24894647#2"/>
    <trip id="109" depart="218.00" from="-27826255#4" to="32186369#2"/>
    <trip id="110" depart="220.00" from="-1419622528" to="859855878"/>
    <trip id="111" depart="222.00" from="48656471#3" to="-1177291481"/>
    <trip id="112" depart="224.00" from="-192094912" to="-36742032"/>
    <trip id="113" depart="226.00" from="27826255#5" to="33334594#1"/>
    <trip id="114" depart="228.00" from="899424827" to="144776544"/>
    <trip id="115" depart="230.00" from="-1448445037" to="30712623#0"/>
    <trip id="116" depart="232.00" from="864503829" to="-30251339"/>
    <trip id="117" depart="234.00" from="33766834#0" to="-33341119#0"/>
    <trip id="118" depart="236.00" from="46190888" to="-30899562"/>
    <trip id="119" depart="238.00" from="-32186379#2" to="32186350#2"/>
    <trip id="120" depart="240.00" from="181615144#4" to="-192094911#1"/>
    <trip id="121" depart="242.00" from="-181615144#3" to="-30251332"/>
    <trip id="122" depart="244.00" from="-95734888#1" to="32028614#0"/>
    <trip id="123" depart="246.00" from="24246121#0" to="-30137546#4"/>
    <trip id="124" depart="248.00" from="278916755#2" to="-33334594#1"/>
    <trip id="125" depart="250.00" from="-30721320#4" to="30712637"/>
    <trip id="126" depart="252.00" from="-888507327" to="30712634"/>
    <trip id="127" depart="254.00" from="-30899681" to="95734888#0"/>
    <trip id="128" depart="256.00" from="33334600#0" to="-152477521#0"/>
    <trip id="129" depart="258.00" from="-144781869#2" to="-32028616"/>
    <trip id="130" depart="260.00" from="1178430873#2" to="-864503828"/>
    <trip id="131" depart="262.00" from="-51095540#0" to="29713847#0"/>
    <trip id="132" depart="264.00" from="1265012192" to="144778294"/>
    <trip id="133" depart="266.00" from="27826253" to="-630882109"/>
    <trip id="134" depart="268.00" from="1424400851" to="-30899685#1"/>
    <trip id="135" depart="270.00" from="33334608#1" to="29323117#4"/>
    <trip id="136" depart="272.00" from="1004525372" to="-866697466"/>
    <trip id="137" depart="274.00" from="-30712623#4" to="-144775174#2"/>
    <trip id="138" depart="276.00" from="-32028612#1" to="859855879#4"/>
    <trip id="139" depart="278.00" from="-32053595#4" to="24893581"/>
    <trip id="140" depart="280.00" from="-899424825#0" to="33341123#1"/>
    <trip id="141" depart="282.00" from="-30721322#0" to="24509095#1"/>
    <trip id="142" depart="284.00" from="140248720#1" to="-42857615"/>
    <trip id="143" depart="286.00" from="32028611#2" to="247597651"/>
    <trip id="144" depart="288.00" from="-125805483#2" to="-30721320#3"/>
    <trip id="145" depart="290.00" from="32186385#0" to="33374565#1"/>
    <trip id="146" depart="292.00" from="-24569552" to="-32186348#0"/>
    <trip id="147" depart="294.00" from="152273625" to="-33374555#0"/>
    <trip id="148" depart="296.00" from="-95734884#1" to="48536194#8"/>
    <trip id="149" depart="298.00" from="-36742032" to="-84059627#0"/>
    <trip id="150" depart="300.00" from="-32053595#5" to="-62330525"/>
    <trip id="151" depart="302.00" from="1213647680" to="-1446924200"/>
    <trip id="152" depart="304.00" from="-30251331#1" to="30171283#2"/>
    <trip id="153" depart="306.00" from="-24894647#0" to="-32053595#7"/>
    <trip id="154" depart="308.00" from="119027218" to="-30251343#1"/>
    <trip id="155" depart="310.00" from="-24893581" to="32028608#1"/>
    <trip id="156" depart="312.00" from="33334594#2" to="30768031#3"/>
    <trip id="157" depart="314.00" from="-1446924203#0" to="30899692#1"/>
    <trip id="158" depart="316.00" from="866596956" to="32028610"/>
    <trip id="159" depart="318.00" from="150589063" to="33766834#0"/>
    <trip id="160" depart="320.00" from="-42857617" to="-49606118"/>
    <trip id="161" depart="322.00" from="-1424414778" to="-48536195"/>
    <trip id="162" depart="324.00" from="-888507327" to="1178430873#1"/>
    <trip id="163" depart="326.00" from="-32028618#1" to="-125814932#2"/>
    <trip id="164" depart="328.00" from="-42687131" to="-32053597#0"/>
    <trip id="165" depart="330.00" from="972829806" to="114374237"/>
    <trip id="166" depart="332.00" from="-23340806#0" to="1433555830"/>
    <trip id="167" depart="334.00" from="-27826255#2" to="-46190888"/>
    <trip id="168" depart="336.00" from="-114374237" to="312801911"/>
    <trip id="169" depart="338.00" from="-152273617#2" to="-192094911#3"/>
    <trip id="170" depart="340.00" from="-144777329#1" to="24569550#1"/>
    <trip id="171" depart="342.00" from="32053595#4" to="24569616#0"/>
    <trip id="172" depart="344.00" from="-150521993#0" to="-967017665#1"/>
    <trip id="173" depart="346.00" from="888507326" to="376888043#2"/>
    <trip id="174" depart="348.00" from="29128178#1" to="30899692#0"/>
    <trip id="175" depart="350.00" from="41427149#1" to="33334617#2"/>
    <trip id="176" depart="352.00" from="-33334594#3" to="-30283735"/>
    <trip id="177" depart="354.00" from="-81183681" to="84059629"/>
    <trip id="178" depart="356.00" from="80635727#0" to="-48656471#6"/>
    <trip id="179" depart="358.00" from="-95734884#1" to="-32028606"/>
    <trip id="180" depart="360.00" from="30137546#2" to="888507347#0"/>
    <trip id="181" depart="362.00" from="-24246121#0" to="-30899564"/>
    <trip id="182" depart="364.00" from="1265012184" to="-24569616#0"/>
    <trip id="183" depart="366.00" from="-125805483#3" to="-85506821"/>
    <trip id="184" depart="368.00" from="972829807" to="-899424826#0"/>
    <trip id="185" depart="370.00" from="33766833" to="-144781869#2"/>
    <trip id="186" depart="372.00" from="-374848339" to="247597651"/>
    <trip id="187" depart="374.00" from="-136646738#1" to="30899562"/>
    <trip id="188" depart="376.00" from="-33334628#2" to="888507336"/>
    <trip id="189" depart="378.00" from="-81183681" to="144781869#3"/>
    <trip id="190" depart="380.00" from="29323117#8" to="-41493970#1"/>
    <trip id="191" depart="382.00" from="-1419622528" to="-237686408#3"/>
    <trip id="192" depart="384.00" from="30324407#4" to="33341129#2"/>
    <trip id="193" depart="386.00" from="-1004525385" to="30137546#6"/>
    <trip id="194" depart="388.00" from="32053595#1" to="-1265012195#0"/>
    <trip id="195" depart="390.00" from="144781870" to="-95734884#0"/>
    <trip id="196" depart="392.00" from="152273617#2" to="237686408#2"/>
    <trip id="197" depart="394.00" from="-95734873" to="-30324407#2"/>
    <trip id="198" depart="396.00" from="-30171283#0" to="-41493971#0"/>
    <trip id="199" depart="398.00" from="95738971" to="-899424826#0"/>
    <trip id="200" depart="400.00" from="24893581" to="-192094830#1"/>
    <trip id="201" depart="402.00" from="-482474129#1" to="-33334620#2"/>
    <trip id="202" depart="404.00" from="743760223#7" to="-26484474"/>
    <trip id="203" depart="406.00" from="-33357239#0" to="24509095#2"/>
    <trip id="204" depart="408.00" from="-1433555831" to="144779985#1"/>
    <trip id="205" depart="410.00" from="144775174#0" to="136476693#1"/>
    <trip id="206" depart="412.00" from="42564324" to="-42857615"/>
    <trip id="207" depart="414.00" from="-82533508" to="312801903"/>
    <trip id="208" depart="416.00" from="62330525" to="278916755#0"/>
    <trip id="209" depart="418.00" from="49606114#0" to="-237686408#4"/>
    <trip id="210" depart="420.00" from="30712653#0" to="966348675"/>
    <trip id="211" depart="422.00" from="899424841" to="-30478492"/>
    <trip id="212" depart="424.00" from="33844573" to="278916755#1"/>
    <trip id="213" depart="426.00" from="33334620#0" to="125814932#0"/>
    <trip id="214" depart="428.00" from="-630882109" to="-47050735#0"/>
    <trip id="215" depart="430.00" from="-899424844#1" to="1004525372"/>
    <trip id="216" depart="432.00" from="-30712656" to="30721318#1"/>
    <trip id="217" depart="434.00" from="1067864044" to="-30251343#0"/>
    <trip id="218" depart="436.00" from="34015164" to="-30137546#5"/>
    <trip id="219" depart="438.00" from="-132148532" to="899424835"/>
    <trip id="220" depart="440.00" from="376888043#0" to="152273617#4"/>
    <trip id="221" depart="442.00" from="33334617#0" to="33374576"/>
    <trip id="222" depart="444.00" from="42564324" to="30283735"/>
    <trip id="223" depart="446.00" from="-33374561" to="32186362#0"/>
    <trip id="224" depart="448.00" from="32053597#1" to="743760223#5"/>
    <trip id="225" depart="450.00" from="-32053597#1" to="136646736"/>
    <trip id="226" depart="452.00" from="-1433555831" to="42749530"/>
    <trip id="227" depart="454.00" from="33334628#3" to="-140248720#1"/>
    <trip id="228" depart="456.00" from="-30251355#3" to="-24894647#0"/>
    <trip id="229" depart="458.00" from="30712647#0" to="-888507336"/>
    <trip id="230" depart="460.00" from="899424830" to="-192094913#0"/>
    <trip id="231" depart="462.00" from="899424825#1" to="-140244889#1"/>
    <trip id="232" depart="464.00" from="32186348#4" to="-150589064#0"/>
    <trip id="233" depart="466.00" from="-30721320#0" to="30137545"/>
    <trip id="234" depart="468.00" from="30899695#0" to="33374555#1"/>
    <trip id="235" depart="470.00" from="30251331#0" to="-32053597#0"/>
    <trip id="236" depart="472.00" from="-33374554#1" to="-1265012187"/>
    <trip id="237" depart="474.00" from="-144781869#1" to="-33334613#2"/>
    <trip id="238" depart="476.00" from="85506818#0" to="1448445037"/>
    <trip id="239" depart="478.00" from="-32028613" to="1424400851"/>
    <trip id="240" depart="480.00" from="1265012191" to="743760223#0"/>
    <trip id="241" depart="482.00" from="246543144#1" to="192094910#1"/>
    <trip id="242" depart="484.00" from="-866930540" to="30712636#1"/>
    <trip id="243" depart="486.00" from="30251356#1" to="-899424830"/>
    <trip id="244" depart="488.00" from="-27826254#1" to="32186372#2"/>
    <trip id="245" depart="490.00" from="1265012195#1" to="-41493972"/>
    <trip id="246" depart="492.00" from="1265012184" to="-30171279#1"/>
    <trip id="247" depart="494.00" from="-30768031#3" to="-30171283#4"/>
    <trip id="248" depart="496.00" from="-192094911#3" to="-32028603"/>
    <trip id="249" depart="498.00" from="-30478491" to="-1448437647"/>
    <trip id="250" depart="500.00" from="192082795#2" to="-1162859915#1"/>
    <trip id="251" depart="502.00" from="140244885#2" to="1265012185"/>
    <trip id="252" depart="504.00" from="192094957" to="-969759580"/>
    <trip id="253" depart="506.00" from="33374576" to="-144779985#1"/>
    <trip id="254" depart="508.00" from="-972829798" to="-95734889#0"/>
    <trip id="255" depart="510.00" from="140248717" to="152273624#0"/>
    <trip id="256" depart="512.00" from="972242384" to="136476693#1"/>
    <trip id="257" depart="514.00" from="-1213647682" to="630882107#0"/>
    <trip id="258" depart="516.00" from="-32028614#0" to="899424831"/>
    <trip id="259" depart="518.00" from="-32028614#1" to="30251338"/>
    <trip id="260" depart="520.00" from="-30712623#0" to="1265012194#7"/>
    <trip id="261" depart="522.00" from="-30721313" to="30712636#0"/>
    <trip id="262" depart="524.00" from="939087422" to="32186368#1"/>
    <trip id="263" depart="526.00" from="-152273624#1" to="-1207503207"/>
    <trip id="264" depart="528.00" from="-95734884#3" to="-23340806#2"/>
    <trip id="265" depart="530.00" from="30283733#0" to="-59999386"/>
    <trip id="266" depart="532.00" from="30768031#4" to="-967017666"/>
    <trip id="267" depart="534.00" from="-49606113#4" to="1448437647"/>
    <trip id="268" depart="536.00" from="33341129#2" to="-967017669"/>
    <trip id="269" depart="538.00" from="30712655#0" to="-888507347#0"/>
    <trip id="270" depart="540.00" from="24894647#0" to="25395677"/>
    <trip id="271" depart="542.00" from="506195413" to="30137546#3"/>
    <trip id="272" depart="544.00" from="-899424840" to="114374241#0"/>
    <trip id="273" depart="546.00" from="644290036" to="85506818#6"/>
    <trip id="274" depart="548.00" from="-1265012186" to="27826255#3"/>
    <trip id="275" depart="550.00" from="-24569614#0" to="-30712623#2"/>
    <trip id="276" depart="552.00" from="-30721320#2" to="-192094830#0"/>
    <trip id="277" depart="554.00" from="20124555" to="-30251340#0"/>
    <trip id="278" depart="556.00" from="-1177291482#1" to="30721322#3"/>
    <trip id="279" depart="558.00" from="30721317" to="119027217#4"/>
    <trip id="280" depart="560.00" from="33374577#2" to="30721318#0"/>
    <trip id="281" depart="562.00" from="859642226" to="403947966"/>
    <trip id="282" depart="564.00" from="372675045#0" to="-33766835#1"/>
    <trip id="283" depart="566.00" from="1162859915#0" to="-32186371"/>
    <trip id="284" depart="568.00" from="-95734889#0" to="-140244884"/>
    <trip id="285" depart="570.00" from="-29323117#3" to="-1178430872"/>
    <trip id="286" depart="572.00" from="1265012195#0" to="1069191764"/>
    <trip id="287" depart="574.00" from="-1265012193" to="-48536194#8"/>
    <trip id="288" depart="576.00" from="30899688" to="29323117#7"/>
    <trip id="289" depart="578.00" from="-32053597#4" to="192094913#0"/>
    <trip id="290" depart="580.00" from="-95734892" to="374848339"/>
    <trip id="291" depart="582.00" from="-30251331#1" to="140244888"/>
    <trip id="292" depart="584.00" from="-372675045#0" to="-33967560#0"/>
    <trip id="293" depart="586.00" from="152273617#4" to="-1419622528"/>
    <trip id="294" depart="588.00" from="30712655#0" to="48656471#4"/>
    <trip id="295" depart="590.00" from="30712640#1" to="630882109"/>
    <trip id="296" depart="592.00" from="-59999386" to="114374237"/>
    <trip id="297" depart="594.00" from="33374577#1" to="230489442"/>
    <trip id="298" depart="596.00" from="-41493970#1" to="-888507337"/>
    <trip id="299" depart="598.00" from="136646738#2" to="33334608#0"/>
    <trip id="300" depart="600.00" from="-32028607" to="1448445036#1"/>
    <trip id="301" depart="602.00" from="33766833" to="33334594#3"/>
    <trip id="302" depart="604.00" from="1448437648" to="-859855879#2"/>
    <trip id="303" depart="606.00" from="-41493969" to="192094831"/>
    <trip id="304" depart="608.00" from="372675045#0" to="-374848338"/>
    <trip id="305" depart="610.00" from="32028601" to="159093284#1"/>
    <trip id="306" depart="612.00" from="-30251338" to="33334612"/>
    <trip id="307" depart="614.00" from="48656474#1" to="-972829806"/>
    <trip id="308" depart="616.00" from="-24894647#1" to="972242378#1"/>
    <trip id="309" depart="618.00" from="33374555#0" to="32053596#0"/>
    <trip id="310" depart="620.00" from="32028616" to="1433555830"/>
    <trip id="311" depart="622.00" from="-29323117#4" to="-1004525375"/>
    <trip id="312" depart="624.00" from="30721318#2" to="144777329#3"/>
    <trip id="313" depart="626.00" from="100397093" to="-32028618#1"/>
    <trip id="314" depart="628.00" from="-32028618#1" to="-30712636#1"/>
    <trip id="315" depart="630.00" from="33766835#0" to="-246543144#1"/>
    <trip id="316" depart="632.00" from="-33967560#0" to="967017669"/>
    <trip id="317" depart="634.00" from="33334613#1" to="47266123#1"/>
    <trip id="318" depart="636.00" from="-144781044#1" to="-47050735#0"/>
    <trip id="319" depart="638.00" from="30712650" to="33374554#0"/>
    <trip id="320" depart="640.00" from="-1162859913" to="-1265012188#1"/>
    <trip id="321" depart="642.00" from="-140244888" to="1265012195#0"/>
    <trip id="322" depart="644.00" from="33374577#0" to="81183681"/>
    <trip id="323" depart="646.00" from="30171286#0" to="-100771321"/>
    <trip id="324" depart="648.00" from="-32186352" to="312801911"/>
    <trip id="325" depart="650.00" from="41493972" to="-33334613#0"/>
    <trip id="326" depart="652.00" from="32186362#1" to="899424826#0"/>
    <trip id="327" depart="654.00" from="-24569552" to="743760223#5"/>
    <trip id="328" depart="656.00" from="-29713847#2" to="-1004525385"/>
    <trip id="329" depart="658.00" from="372675045#1" to="230489447"/>
    <trip id="330" depart="660.00" from="33334594#0" to="51095540#1"/>
    <trip id="331" depart="662.00" from="-237686408#4" to="-30721318#1"/>
    <trip id="332" depart="664.00" from="30721320#0" to="630882104#1"/>
    <trip id="333" depart="666.00" from="1177291481" to="33334603"/>
    <trip id="334" depart="668.00" from="33357239#1" to="-30721320#4"/>
    <trip id="335" depart="670.00" from="-743760223#0" to="-30712646"/>
    <trip id="336" depart="672.00" from="-140244891#1" to="-49606113#0"/>
    <trip id="337" depart="674.00" from="144777543#0" to="-378455903"/>
    <trip id="338" depart="676.00" from="-30478491" to="-630882107#0"/>
    <trip id="339" depart="678.00" from="-400729928" to="-292920910"/>
    <trip id="340" depart="680.00" from="159093284#0" to="159093284#1"/>
    <trip id="341" depart="682.00" from="-49606113#4" to="-24509013#0"/>
    <trip id="342" depart="684.00" from="42564324" to="30324404#0"/>
    <trip id="343" depart="686.00" from="-48536194#6" to="-24510383"/>
    <trip id="344" depart="688.00" from="-30324404#1" to="-888507326"/>
    <trip id="345" depart="690.00" from="-49606112#2" to="33539525"/>
    <trip id="346" depart="692.00" from="-30251355#1" to="144778294"/>
    <trip id="347" depart="694.00" from="-47266123#1" to="-1265012186"/>
    <trip id="348" depart="696.00" from="29323117#0" to="-1446924203#0"/>
    <trip id="349" depart="698.00" from="29713851" to="-32028603"/>
    <trip id="350" depart="700.00" from="181615145" to="36742032"/>
    <trip id="351" depart="702.00" from="30324403#1" to="-30171283#3"/>
    <trip id="352" depart="704.00" from="32186372#2" to="-1177291482#1"/>
    <trip id="353" depart="706.00" from="32186368#1" to="-29713851"/>
    <trip id="354" depart="708.00" from="192094829" to="-33334628#1"/>
    <trip id="355" depart="710.00" from="181615144#4" to="-278916755#0"/>
    <trip id="356" depart="712.00" from="-1207503207" to="-30171283#2"/>
    <trip id="357" depart="714.00" from="-32053597#3" to="-30899681"/>
    <trip id="358" depart="716.00" from="-482474139#1" to="-630882110"/>
    <trip id="359" depart="718.00" from="-140244888" to="49606115"/>
    <trip id="360" depart="720.00" from="-206726098" to="48536194#7"/>
    <trip id="361" depart="722.00" from="-33334600#1" to="-482474129#0"/>
    <trip id="362" depart="724.00" from="482474129#1" to="-1069191764"/>
    <trip id="363" depart="726.00" from="48656471#2" to="-24246121#0"/>
    <trip id="364" depart="728.00" from="-899424827" to="899424838"/>
    <trip id="365" depart="730.00" from="-1162859912" to="376888043#1"/>
    <trip id="366" depart="732.00" from="-152273624#0" to="-119027217#4"/>
    <trip id="367" depart="734.00" from="-152273617#4" to="59979916#0"/>
    <trip id="368" depart="736.00" from="1265012194#6" to="1265012186"/>
    <trip id="369" depart="738.00" from="-32186381" to="-32186385#0"/>
    <trip id="370" depart="740.00" from="42749529#1" to="864503828"/>
    <trip id="371" depart="742.00" from="743760223#0" to="-41493970#0"/>
    <trip id="372" depart="744.00" from="-33374572" to="80635727#1"/>
    <trip id="373" depart="746.00" from="-192082795#4" to="-1424400851"/>
    <trip id="374" depart="748.00" from="-30712628" to="159093284#0"/>
    <trip id="375" depart="750.00" from="24569552" to="159093284#2"/>
    <trip id="376" depart="752.00" from="-95732609" to="30251355#0"/>
    <trip id="377" depart="754.00" from="-32028619" to="-32053597#2"/>
    <trip id="378" depart="756.00" from="-125814932#1" to="47050736"/>
    <trip id="379" depart="758.00" from="-32028608#1" to="1178430873#2"/>
    <trip id="380" depart="760.00" from="30712656" to="-23340806#1"/>
    <trip id="381" depart="762.00" from="-144777330" to="-32028602#1"/>
    <trip id="382" depart="764.00" from="152273624#1" to="-24569550#0"/>
    <trip id="383" depart="766.00" from="-899424825#1" to="31863294"/>
    <trip id="384" depart="768.00" from="-20124557#0" to="-1162859915#1"/>
    <trip id="385" depart="770.00" from="972242378#1" to="-144781870"/>
    <trip id="386" depart="772.00" from="-482474129#1" to="32053597#2"/>
    <trip id="387" depart="774.00" from="-51095540#2" to="-30712640#0"/>
    <trip id="388" depart="776.00" from="-27826255#3" to="32028618#0"/>
    <trip id="389" depart="778.00" from="33334620#2" to="-30324408#1"/>
    <trip id="390" depart="780.00" from="32028610" to="-192095423#1"/>
    <trip id="391" depart="782.00" from="-132148532" to="47050735#0"/>
    <trip id="392" depart="784.00" from="-32028614#1" to="-30324404#1"/>
    <trip id="393" depart="786.00" from="48656472" to="30137546#4"/>
    <trip id="394" depart="788.00" from="24510383" to="-29323117#10"/>
    <trip id="395" depart="790.00" from="-899424830" to="743760223#1"/>
    <trip id="396" depart="792.00" from="899424825#1" to="-32028617"/>
    <trip id="397" depart="794.00" from="181615145" to="1265012194#2"/>
    <trip id="398" depart="796.00" from="-30171283#0" to="-33766833"/>
    <trip id="399" depart="798.00" from="-30137546#0" to="29128177"/>
    <trip id="400" depart="800.00" from="31863290#1" to="152272071#0"/>
    <trip id="401" depart="802.00" from="144777329#0" to="-1213647683"/>
    <trip id="402" depart="804.00" from="-859642226" to="-30712656"/>
    <trip id="403" depart="806.00" from="1424400851" to="29323117#7"/>
    <trip id="404" depart="808.00" from="41493971#0" to="972829798"/>
    <trip id="405" depart="810.00" from="-30324407#6" to="-1004525374"/>
    <trip id="406" depart="812.00" from="33374561" to="114374241#3"/>
    <trip id="407" depart="814.00" from="1265012191" to="-420331396#0"/>
    <trip id="408" depart="816.00" from="-966348675" to="29323117#6"/>
    <trip id="409" depart="818.00" from="30283737" to="-30899702#1"/>
    <trip id="410" depart="820.00" from="32053595#6" to="-33334594#0"/>
    <trip id="411" depart="822.00" from="743760223#6" to="30137546#1"/>
    <trip id="412" depart="824.00" from="-144775174#2" to="-1004525374"/>
    <trip id="413" depart="826.00" from="-1448445038#1" to="-49606112#1"/>
    <trip id="414" depart="828.00" from="23340806#0" to="-206726094"/>
    <trip id="415" depart="830.00" from="202833376#1" to="192094957"/>