<?xml version="1.0" encoding="UTF-8"?>

<!-- generated on 12/08/25 19:17:06 by Eclipse SUMO duarouter Version 1.5.0
<configuration xmlns:xsi="http://www.w3.org/2001/XMLSchema-instance" xsi:noNamespaceSchemaLocation="http://sumo.dlr.de/xsd/duarouterConfiguration.xsd">

    <input>
        <net-file value="gaimersheim.net.xml"/>
        <route-files value="gaimersheim.trips.xml"/>
    </input>

    <output>
        <output-file value="gaimersheim.trips.xml.tmp"/>
        <write-trips value="true"/>
    </output>

    <time>
        <begin value="0"/>
        <end value="3600.0"/>
    </time>

    <report>
        <no-warnings value="true"/>
        <ignore-errors value="true"/>
        <no-step-log value="true"/>
    </report>

</configuration>
-->

<routes xmlns:xsi="http://www.w3.org/2001/XMLSchema-instance" xsi:noNamespaceSchemaLocation="http://sumo.dlr.de/xsd/routes_file.xsd">
    <vType id="passenger" vClass="passenger"/>
    <trip id="0" type="passenger" depart="0.00" from="25503031#5" to="106197390#0"/>
    <trip id="1" type="passenger" depart="3.00" from="217449819" to="62227316#2"/>
    <trip id="2" type="passenger" depart="6.00" from="1266117491" to="-420153789"/>
    <trip id="3" type="passenger" depart="9.00" from="-153761276#1" to="-700668007#1"/>
    <trip id="4" type="passenger" depart="12.00" from="-29399882#1" to="-34566934#2"/>
    <trip id="5" type="passenger" depart="15.00" from="-151155108#3" to="-150880960#1"/>
    <trip id="6" type="passenger" depart="18.00" from="1177076304" to="208078018"/>
    <trip id="7" type="passenger" depart="21.00" from="-28143477#5" to="-243637492#1"/>
    <trip id="8" type="passenger" depart="24.00" from="27028853#0" to="-1436284992#0"/>
    <trip id="9" type="passenger" depart="27.00" from="136436468#0" to="-1205415226"/>
    <trip id="10" type="passenger" depart="30.00" from="64226411#2" to="-513997847#1"/>
    <trip id="11" type="passenger" depart="33.00" from="-143488717#1" to="153775858#1"/>
    <trip id="12" type="passenger" depart="36.00" from="29911095#1" to="164343838"/>
    <trip id="13" type="passenger" depart="39.00" from="26348429#0" to="24542058#5"/>
    <trip id="14" type="passenger" depart="42.00" from="-33225210#9" to="28172008#0"/>
    <trip id="15" type="passenger" depart="45.00" from="4396665#2" to="192962652#0"/>
    <trip id="16" type="passenger" depart="48.00" from="-4396665#0" to="24532282#0"/>
    <trip id="17" type="passenger" depart="51.00" from="32229973" to="-31097657#0"/>
    <trip id="18" type="passenger" depart="54.00" from="-29352658#2" to="33150102#1"/>
    <trip id="19" type="passenger" depart="57.00" from="161783476#0" to="-137553688#0"/>
    <trip id="20" type="passenger" depart="60.00" from="-24540800#5" to="-28144021#0"/>
    <trip id="21" type="passenger" depart="63.00" from="-545126318#1" to="34581651#2"/>
    <trip id="22" type="passenger" depart="66.00" from="-1098232106" to="32395288#0"/>
    <trip id="23" type="passenger" depart="69.00" from="26320108#0" to="-143488711#6"/>
    <trip id="24" type="passenger" depart="72.00" from="62227316#0" to="-24538227#0"/>
    <trip id="25" type="passenger" depart="75.00" from="24532292#3" to="42674133#5"/>
    <trip id="26" type="passenger" depart="78.00" from="-34700544#2" to="34017546#0"/>
    <trip id="27" type="passenger" depart="81.00" from="199480963" to="-29426747#2"/>
    <trip id="28" type="passenger" depart="84.00" from="1164249663" to="-108549706"/>
    <trip id="29" type="passenger" depart="87.00" from="-42491781" to="320733899#0"/>
    <trip id="30" type="passenger" depart="90.00" from="34826588#3" to="-34566710#1"/>
    <trip id="31" type="passenger" depart="93.00" from="380561710" to="-28144202#3"/>
    <trip id="32" type="passenger" depart="96.00" from="23622107#2" to="24540659#3"/>
    <trip id="33" type="passenger" depart="99.00" from="34566573#0" to="893961310"/>
    <trip id="34" type="passenger" depart="102.00" from="24541246#0" to="1182776445"/>
    <trip id="35" type="passenger" depart="105.00" from="37255733#1" to="-1056178386#1"/>
    <trip id="36" type="passenger" depart="108.00" from="-148667410#1" to="34566384#2"/>
    <trip id="37" type="passenger" depart="111.00" from="202092676#1" to="-29399697#3"/>
    <trip id="38" type="passenger" depart="114.00" from="-121656780#2" to="-28970255"/>
    <trip id="39" type="passenger" depart="117.00" from="32681493#2" to="1392542081"/>
    <trip id="40" type="passenger" depart="120.00" from="-1386929883" to="25145012#0"/>
    <trip id="41" type="passenger" depart="123.00" from="-161534490#8" to="-441810448#17"/>
    <trip id="42" type="passenger" depart="126.00" from="172540725#1" to="-285598530#2"/>
    <trip id="43" type="passenger" depart="129.00" from="-26328383" to="-222668079#2"/>
    <trip id="44" type="passenger" depart="132.00" from="129379920#0" to="333411721#1"/>
    <trip id="45" type="passenger" depart="135.00" from="-23622140#1" to="139516085"/>
    <trip id="46" type="passenger" depart="138.00" from="28135363" to="-23623640"/>
    <trip id="47" type="passenger" depart="141.00" from="-1415601047#1" to="-157919728#7"/>
    <trip id="48" type="passenger" depart="144.00" from="-35926360#0" to="560829427#3"/>
    <trip id="49" type="passenger" depart="147.00" from="333411721#1" to="792465280#0"/>
    <trip id="50" type="passenger" depart="150.00" from="-125604809#0" to="-1192582851"/>
    <trip id="51" type="passenger" depart="153.00" from="151155094#3" to="-34715999#4"/>
    <trip id="52" type="passenger" depart="156.00" from="-29399875#1" to="-25665607#0"/>
    <trip id="53" type="passenger" depart="159.00" from="-26326883#6" to="34567167#8"/>
    <trip id="54" type="passenger" depart="162.00" from="-792465280#1" to="25145012#2"/>
    <trip id="55" type="passenger" depart="165.00" from="153770410#1" to="139516081#4"/>
    <trip id="56" type="passenger" depart="168.00" from="34618542#1" to="-26320236#0"/>
    <trip id="57" type="passenger" depart="171.00" from="-28143293" to="153770408"/>
    <trip id="58" type="passenger" depart="174.00" from="34566772#0" to="1192582846"/>
    <trip id="59" type="passenger" depart="177.00" from="-1420330346#0" to="32018820#7"/>
    <trip id="60" type="passenger" depart="180.00" from="-194080703" to="33150102#1"/>
    <trip id="61" type="passenger" depart="183.00" from="118710160#0" to="118710160#0"/>
    <trip id="62" type="passenger" depart="186.00" from="150880960#4" to="29353203#5"/>
    <trip id="63" type="passenger" depart="189.00" from="27062894#0" to="45234387#2"/>
    <trip id="64" type="passenger" depart="192.00" from="32788320#0" to="-771703588"/>
    <trip id="65" type="passenger" depart="195.00" from="-24754837#9" to="73813555#0"/>
    <trip id="66" type="passenger" depart="198.00" from="-1190129471" to="-172048398#1"/>
    <trip id="67" type="passenger" depart="201.00" from="-143488739" to="30071416#0"/>
    <trip id="68" type="passenger" depart="204.00" from="93854639" to="1096079275#2"/>
    <trip id="69" type="passenger" depart="207.00" from="-25804120#3" to="29353203#8"/>
    <trip id="70" type="passenger" depart="210.00" from="24542064#0" to="-34689322#0"/>
    <trip id="71" type="passenger" depart="213.00" from="-143488725#12" to="-163209299"/>
    <trip id="72" type="passenger" depart="216.00" from="26677416#2" to="-53635662#4"/>
    <trip id="73" type="passenger" depart="219.00" from="-153774648#1" to="-32876417#1"/>
    <trip id="74" type="passenger" depart="222.00" from="-62227320#0" to="24542067#4"/>
    <trip id="75" type="passenger" depart="225.00" from="26720103#4" to="34581448"/>
    <trip id="76" type="passenger" depart="228.00" from="29426747#0" to="-37137987#0"/>
    <trip id="77" type="passenger" depart="231.00" from="-31019060#1" to="24532285#0"/>
    <trip id="78" type="passenger" depart="234.00" from="31511874#1" to="29261623#1"/>
    <trip id="79" type="passenger" depart="237.00" from="32018854#11" to="28143037#1"/>
    <trip id="80" type="passenger" depart="240.00" from="-25194376#2" to="-24540807#2"/>
    <trip id="81" type="passenger" depart="243.00" from="26340615#7" to="-62469371#0"/>
    <trip id="82" type="passenger" depart="246.00" from="1212795408#0" to="45234454#7"/>
    <trip id="83" type="passenger" depart="249.00" from="-153775850#1" to="-26326867#4"/>
    <trip id="84" type="passenger" depart="252.00" from="166812194#1" to="28112943#3"/>
    <trip id="85" type="passenger" depart="255.00" from="-24541239#2" to="34716533"/>
    <trip id="86" type="passenger" depart="258.00" from="-137550183" to="-150880960#2"/>
    <trip id="87" type="passenger" depart="261.00" from="-29353203#5" to="-24532290#1"/>
    <trip id="88" type="passenger" depart="264.00" from="-41603531#3" to="-1182831690#1"/>
    <trip id="89" type="passenger" depart="267.00" from="-50299718" to="160314345#0"/>
    <trip id="90" type="passenger" depart="270.00" from="-34581468#1" to="-148116641#1"/>
    <trip id="91" type="passenger" depart="273.00" from="-35589036#1" to="34567057#1"/>
    <trip id="92" type="passenger" depart="276.00" from="-34583165#1" to="-203127053#4"/>
    <trip id="93" type="passenger" depart="279.00" from="148250827#1" to="151155098#3"/>
    <trip id="94" type="passenger" depart="282.00" from="24542068#0" to="24634517#24"/>
    <trip id="95" type="passenger" depart="285.00" from="25507928#0" to="53536795"/>
    <trip id="96" type="passenger" depart="288.00" from="132378212#5" to="-1392542070#0"/>
    <trip id="97" type="passenger" depart="291.00" from="143488708#0" to="159646493#2"/>
    <trip id="98" type="passenger" depart="294.00" from="28113278#1" to="128668758#0"/>
    <trip id="99" type="passenger" depart="297.00" from="629233891#0" to="585849228#1"/>
    <trip id="100" type="passenger" depart="300.00" from="157919728#2" to="1166119782#1"/>
    <trip id="101" type="passenger" depart="303.00" from="-25804122" to="145069291#2"/>
    <trip id="102" type="passenger" depart="306.00" from="45234453#1" to="-137550171#5"/>
    <trip id="103" type="passenger" depart="309.00" from="1386934927" to="-1421547185#0"/>
    <trip id="104" type="passenger" depart="312.00" from="-34618386#0" to="775683858#0"/>
    <trip id="105" type="passenger" depart="315.00" from="138396990#2" to="-153775847#3"/>
    <trip id="106" type="passenger" depart="318.00" from="31570886#6" to="-146989202#2"/>
    <trip id="107" type="passenger" depart="321.00" from="26338212#1" to="1386933360#2"/>
    <trip id="108" type="passenger" depart="324.00" from="43833451#5" to="-391606917#1"/>
    <trip id="109" type="passenger" depart="327.00" from="-27081641#2" to="192962656"/>
    <trip id="110" type="passenger" depart="330.00" from="31097657#4" to="-26328278#6"/>
    <trip id="111" type="passenger" depart="333.00" from="201956810" to="201963533#3"/>
    <trip id="112" type="passenger" depart="336.00" from="29399737#5" to="171514040#1"/>
    <trip id="113" type="passenger" depart="339.00" from="148527691#6" to="34566642#0"/>
    <trip id="114" type="passenger" depart="342.00" from="-24541243" to="-34380918#4"/>
    <trip id="115" type="passenger" depart="345.00" from="37255681#2" to="33102476"/>
    <trip id="116" type="passenger" depart="348.00" from="-151155095" to="-111184208"/>
    <trip id="117" type="passenger" depart="351.00" from="-62227316#3" to="-201768021#5"/>
    <trip id="118" type="passenger" depart="354.00" from="35926529" to="-146989200#6"/>
    <trip id="119" type="passenger" depart="357.00" from="32018872#5" to="-771392158"/>
    <trip id="120" type="passenger" depart="360.00" from="-27080919#4" to="-25145013#1"/>
    <trip id="121" type="passenger" depart="363.00" from="-1392054883#1" to="34566386#1"/>
    <trip id="122" type="passenger" depart="366.00" from="45186470#4" to="164343856#1"/>
    <trip id="123" type="passenger" depart="369.00" from="41141231#1" to="890172833"/>
    <trip id="124" type="passenger" depart="372.00" from="-148608332#1" to="199833403"/>
    <trip id="125" type="passenger" depart="375.00" from="-33072409#0" to="34716546#1"/>
    <trip id="126" type="passenger" depart="378.00" from="24542059#1" to="-772758636"/>
    <trip id="127" type="passenger" depart="381.00" from="-1191733710#1" to="34581439#1"/>
    <trip id="128" type="passenger" depart="384.00" from="-28113368#5" to="28143566#0"/>
    <trip id="129" type="passenger" depart="387.00" from="26328383" to="143313756#1"/>
    <trip id="130" type="passenger" depart="390.00" from="25145013#2" to="33224261#1"/>
    <trip id="131" type="passenger" depart="393.00" from="-772656660" to="26328277#4"/>
    <trip id="132" type="passenger" depart="396.00" from="-28135445#2" to="40884548#1"/>
    <trip id="133" type="passenger" depart="399.00" from="-24541242#0" to="171514044"/>
    <trip id="134" type="passenger" depart="402.00" from="24540800#0" to="-153770412#1"/>
    <trip id="135" type="passenger" depart="405.00" from="-39345680#1" to="1040118117#2"/>
    <trip id="136" type="passenger" depart="408.00" from="-24542065#1" to="-33226793#1"/>
    <trip id="137" type="passenger" depart="411.00" from="-93854648#0" to="771392159#0"/>
    <trip id="138" type="passenger" depart="414.00" from="37274918#2" to="-737060639"/>
    <trip id="139" type="passenger" depart="417.00" from="-1026959707#1" to="484875211"/>
    <trip id="140" type="passenger" depart="420.00" from="402597523#1" to="128361096"/>
    <trip id="141" type="passenger" depart="423.00" from="34567137#0" to="-38334581#0"/>
    <trip id="142" type="passenger" depart="426.00" from="-432527970" to="-1040258013#1"/>
    <trip id="143" type="passenger" depart="429.00" from="-143488707#3" to="1455307388"/>
    <trip id="144" type="passenger" depart="432.00" from="-28143655" to="80519254#1"/>
    <trip id="145" type="passenger" depart="435.00" from="-151155107#4" to="26328278#1"/>
    <trip id="146" type="passenger" depart="438.00" from="-125858376#3" to="-32876325#4"/>
    <trip id="147" type="passenger" depart="441.00" from="-24542060#0" to="1089635561"/>
    <trip id="148" type="passenger" depart="444.00" from="34567057#1" to="-34716498#2"/>
    <trip id="149" type="passenger" depart="447.00" from="-320733899#1" to="-157919740#2"/>
    <trip id="150" type="passenger" depart="450.00" from="25145014#0" to="-37274917#1"/>
    <trip id="151" type="passenger" depart="453.00" from="-131724119#0" to="34618542#0"/>
    <trip id="152" type="passenger" depart="456.00" from="28135441#1" to="151155101#0"/>
    <trip id="153" type="passenger" depart="459.00" from="-979851460#2" to="820425369"/>
    <trip id="154" type="passenger" depart="462.00" from="-398471928" to="37255670#1"/>
    <trip id="155" type="passenger" depart="465.00" from="-737079574" to="31511874#6"/>
    <trip id="156" type="passenger" depart="468.00" from="35744155#2" to="-34566710#1"/>
    <trip id="157" type="passenger" depart="471.00" from="164343856#2" to="125609841#1"/>
    <trip id="158" type="passenger" depart="474.00" from="-1266423323" to="-82628963#3"/>
    <trip id="159" type="passenger" depart="477.00" from="22727414#0" to="32876498#5"/>
    <trip id="160" type="passenger" depart="480.00" from="-161534490#0" to="201201938#0"/>
    <trip id="161" type="passenger" depart="483.00" from="-28143395#3" to="-24532285#4"/>
    <trip id="162" type="passenger" depart="486.00" from="-172048398#5" to="28113686#0"/>
    <trip id="163" type="passenger" depart="489.00" from="60931370" to="23623674#10"/>
    <trip id="164" type="passenger" depart="492.00" from="-24533243#1" to="-24533121#0"/>
    <trip id="165" type="passenger" depart="495.00" from="-396370763#0" to="-161451835#1"/>
    <trip id="166" type="passenger" depart="498.00" from="-28144112#1" to="24634518#0"/>
    <trip id="167" type="passenger" depart="501.00" from="-29399893#4" to="29261616#1"/>
    <trip id="168" type="passenger" depart="504.00" from="-194083781#0" to="-984258493"/>
    <trip id="169" type="passenger" depart="507.00" from="391606906" to="1082821205#1"/>
    <trip id="170" type="passenger" depart="510.00" from="-55171637#2" to="-164051701#1"/>
    <trip id="171" type="passenger" depart="513.00" from="34566723#0" to="1392542068"/>
    <trip id="172" type="passenger" depart="516.00" from="-31903167#2" to="-37256712#3"/>
    <trip id="173" type="passenger" depart="519.00" from="-262722743" to="137441368"/>
    <trip id="174" type="passenger" depart="522.00" from="46872101#3" to="28113848#0"/>
    <trip id="175" type="passenger" depart="525.00" from="164078530" to="143488691#14"/>
    <trip id="176" type="passenger" depart="528.00" from="560809616#0" to="28162574#3"/>
    <trip id="177" type="passenger" depart="531.00" from="-194080702#0" to="-34618386#0"/>
    <trip id="178" type="passenger" depart="534.00" from="37214287#1" to="-148116641#2"/>
    <trip id="179" type="passenger" depart="537.00" from="161783478#0" to="-156933562#0"/>
    <trip id="180" type="passenger" depart="540.00" from="-75405815#1" to="-171514044"/>
    <trip id="181" type="passenger" depart="543.00" from="-29399757#1" to="-28111977#8"/>
    <trip id="182" type="passenger" depart="546.00" from="-125604809#1" to="164603646"/>
    <trip id="183" type="passenger" depart="549.00" from="139185247#3" to="-164343847#2"/>
    <trip id="184" type="passenger" depart="552.00" from="-1042557947" to="-34015253#0"/>
    <trip id="185" type="passenger" depart="555.00" from="-40884548#3" to="-289331724#1"/>
    <trip id="186" type="passenger" depart="558.00" from="-27062893#7" to="24532282#0"/>
    <trip id="187" type="passenger" depart="561.00" from="1108053760#0" to="-37255738#2"/>
    <trip id="188" type="passenger" depart="564.00" from="-8456134#2" to="62506442#0"/>
    <trip id="189" type="passenger" depart="567.00" from="-143488693#16" to="148527678#0"/>
    <trip id="190" type="passenger" depart="570.00" from="71512319#0" to="28143395#1"/>
    <trip id="191" type="passenger" depart="573.00" from="22727414#3" to="161451835#0"/>
    <trip id="192" type="passenger" depart="576.00" from="-272255537" to="-37137984#11"/>
    <trip id="193" type="passenger" depart="579.00" from="-24538235#0" to="513997845"/>
    <trip id="194" type="passenger" depart="582.00" from="-399195985" to="-984258497#1"/>
    <trip id="195" type="passenger" depart="585.00" from="-24634517#19" to="125002604"/>
    <trip id="196" type="passenger" depart="588.00" from="24533124#0" to="-80519251"/>
    <trip id="197" type="passenger" depart="591.00" from="-28143670" to="18813611#4"/>
    <trip id="198" type="passenger" depart="594.00" from="-34583189#2" to="62488131#0"/>
    <trip id="199" type="passenger" depart="597.00" from="28135433#0" to="1435080809"/>
    <trip id="200" type="passenger" depart="600.00" from="151155106#2" to="128823478#1"/>
    <trip id="201" type="passenger" depart="603.00" from="143488688#7" to="-173166291#1"/>
    <trip id="202" type="passenger" depart="606.00" from="436776640" to="-28143477#1"/>
    <trip id="203" type="passenger" depart="609.00" from="26326883#4" to="42491781"/>
    <trip id="204" type="passenger" depart="612.00" from="-243637492#1" to="-24533124#1"/>
    <trip id="205" type="passenger" depart="615.00" from="137441369" to="34618404#0"/>
    <trip id="206" type="passenger" depart="618.00" from="62229051" to="890172827"/>
    <trip id="207" type="passenger" depart="621.00" from="696447832" to="-200960140#6"/>
    <trip id="208" type="passenger" depart="624.00" from="420153789" to="-229915386#0"/>
    <trip id="209" type="passenger" depart="627.00" from="37214287#1" to="-793466414#0"/>
    <trip id="210" type="passenger" depart="630.00" from="151155110#1" to="38334581#0"/>
    <trip id="211" type="passenger" depart="633.00" from="143488731#1" to="28135298#0"/>
    <trip id="212" type="passenger" depart="636.00" from="1380605987#1" to="10427692#0"/>
    <trip id="213" type="passenger" depart="639.00" from="1189720623" to="-28182836#2"/>
    <trip id="214" type="passenger" depart="642.00" from="-173203413#7" to="-201201936#13"/>
    <trip id="215" type="passenger" depart="645.00" from="-4396665#1" to="-1266423322#1"/>
    <trip id="216" type="passenger" depart="648.00" from="146989205#2" to="1423498054#1"/>
    <trip id="217" type="passenger" depart="651.00" from="1408814452" to="-143488690#2"/>
    <trip id="218" type="passenger" depart="654.00" from="-31432116#3" to="379795380"/>
    <trip id="219" type="passenger" depart="657.00" from="171514048#0" to="43833451#6"/>
    <trip id="220" type="passenger" depart="660.00" from="-1392054883#0" to="-26328278#2"/>
    <trip id="221" type="passenger" depart="663.00" from="972192883" to="-1266117490#1"/>
    <trip id="222" type="passenger" depart="666.00" from="146914992#3" to="-34566779#1"/>
    <trip id="223" type="passenger" depart="669.00" from="1026959709#1" to="-161451850#1"/>
    <trip id="224" type="passenger" depart="672.00" from="-37255726#6" to="27081641#2"/>
    <trip id="225" type="passenger" depart="675.00" from="-1056178386#0" to="1209056558"/>
    <trip id="226" type="passenger" depart="678.00" from="24532288#0" to="151155108#2"/>
    <trip id="227" type="passenger" depart="681.00" from="-164051699" to="30482614"/>
    <trip id="228" type="passenger" depart="684.00" from="18909063#0" to="137550180#0"/>
    <trip id="229" type="passenger" depart="687.00" from="-32920939#2" to="-23621955#2"/>
    <trip id="230" type="passenger" depart="690.00" from="-1266117490#0" to="-126446132#1"/>
    <trip id="231" type="passenger" depart="693.00" from="-285598530#1" to="-1168481093"/>
    <trip id="232" type="passenger" depart="696.00" from="-770859769#1" to="-45234454#8"/>
    <trip id="233" type="passenger" depart="699.00" from="-37681425#8" to="-28143037#2"/>
    <trip id="234" type="passenger" depart="702.00" from="-24538230#5" to="148667410#0"/>
    <trip id="235" type="passenger" depart="705.00" from="-1089635563#0" to="-391606906"/>
    <trip id="236" type="passenger" depart="708.00" from="-35589036#2" to="42508870#3"/>
    <trip id="237" type="passenger" depart="711.00" from="-34583051#0" to="-1386929370"/>
    <trip id="238" type="passenger" depart="714.00" from="-126954029#1" to="-35468001#0"/>
    <trip id="239" type="passenger" depart="717.00" from="415471801#1" to="33102205#1"/>
    <trip id="240" type="passenger" depart="720.00" from="-25145012#8" to="34566773#1"/>
    <trip id="241" type="passenger" depart="723.00" from="-208078019#0" to="41141231#1"/>
    <trip id="242" type="passenger" depart="726.00" from="-151155094#5" to="-1392053484#1"/>
    <trip id="243" type="passenger" depart="729.00" from="-34744256" to="172048397#1"/>
    <trip id="244" type="passenger" depart="732.00" from="-32876542#6" to="27081732#2"/>
    <trip id="245" type="passenger" depart="735.00" from="29353203#8" to="103512667#0"/>
    <trip id="246" type="passenger" depart="738.00" from="-51559018#5" to="-32887544#3"/>
    <trip id="247" type="passenger" depart="741.00" from="-171514040#1" to="108508944#0"/>
    <trip id="248" type="passenger" depart="744.00" from="-1056178386#6" to="204388144"/>
    <trip id="249" type="passenger" depart="747.00" from="159651019#2" to="-150882017#0"/>
    <trip id="250" type="passenger" depart="750.00" from="1193409414#0" to="-114325482"/>
    <trip id="251" type="passenger" depart="753.00" from="914174241#2" to="34566508#1"/>
    <trip id="252" type="passenger" depart="756.00" from="-148250826#1" to="-1266423322#1"/>
    <trip id="253" type="passenger" depart="759.00" from="-153774648#1" to="32018820#0"/>
    <trip id="254" type="passenger" depart="762.00" from="1385047066#0" to="-124915742#9"/>
    <trip id="255" type="passenger" depart="765.00" from="108508946" to="-128823498#2"/>
    <trip id="256" type="passenger" depart="768.00" from="-104394555#2" to="26320108#5"/>
    <trip id="257" type="passenger" depart="771.00" from="-32876346#2" to="32062034"/>
    <trip id="258" type="passenger" depart="774.00" from="-1266117488#1" to="-37137987#2"/>
    <trip id="259" type="passenger" depart="777.00" from="-128823440#1" to="62227319"/>
    <trip id="260" type="passenger" depart="780.00" from="1191732454#2" to="201201953#0"/>
    <trip id="261" type="passenger" depart="783.00" from="62469349#6" to="449057059"/>
    <trip id="262" type="passenger" depart="786.00" from="-27267724" to="1112215973#1"/>
    <trip id="263" type="passenger" depart="789.00" from="398653111" to="1040118112"/>
    <trip id="264" type="passenger" depart="792.00" from="1266117490#1" to="-171514041"/>
    <trip id="265" type="passenger" depart="795.00" from="-34581492#2" to="-34716701#0"/>
    <trip id="266" type="passenger" depart="798.00" from="143488710#0" to="24754837#1"/>
    <trip id="267" type="passenger" depart="801.00" from="-27080658#3" to="199569946#0"/>
    <trip id="268" type="passenger" depart="804.00" from="-984040078" to="201201950#0"/>
    <trip id="269" type="passenger" depart="807.00" from="175716968#1" to="-34581442#0"/>
    <trip id="270" type="passenger" depart="810.00" from="-29161406#2" to="148116638#2"/>
    <trip id="271" type="passenger" depart="813.00" from="429033100" to="143488697#0"/>
    <trip id="272" type="passenger" depart="816.00" from="737320748#0" to="-23622107#1"/>
    <trip id="273" type="passenger" depart="819.00" from="34380918#0" to="45186470#0"/>
    <trip id="274" type="passenger" depart="822.00" from="33704759#2" to="-93854648#0"/>
    <trip id="275" type="passenger" depart="825.00" from="-330515036#0" to="243637493#0"/>
    <trip id="276" type="passenger" depart="828.00" from="1191732454#0" to="1427701268"/>
    <trip id="277" type="passenger" depart="831.00" from="-202070422#2" to="28135303#0"/>
    <trip id="278" type="passenger" depart="834.00" from="217946802" to="34826588#3"/>
    <trip id="279" type="passenger" depart="837.00" from="-629233891#2" to="-137553676#2"/>
    <trip id="280" type="passenger" depart="840.00" from="-128823436" to="37256699#0"/>
    <trip id="281" type="passenger" depart="843.00" from="164343851#2" to="229915415#0"/>
    <trip id="282" type="passenger" depart="846.00" from="129130805#0" to="900501290"/>
    <trip id="283" type="passenger" depart="849.00" from="125604797#1" to="-984258502#1"/>
    <trip id="284" type="passenger" depart="852.00" from="33102205#1" to="27186938"/>
    <trip id="285" type="passenger" depart="855.00" from="-18809672#1" to="-36838482#2"/>
    <trip id="286" type="passenger" depart="858.00" from="-51559018#5" to="266561178#0"/>
    <trip id="287" type="passenger" depart="861.00" from="-153771793" to="29399883#0"/>
    <trip id="288" type="passenger" depart="864.00" from="27176560#2" to="-146989205#1"/>
    <trip id="289" type="passenger" depart="867.00" from="129379918#0" to="374522184#0"/>
    <trip id="290" type="passenger" depart="870.00" from="24540805#1" to="-153775850#1"/>
    <trip id="291" type="passenger" depart="873.00" from="492329659#2" to="148667410#2"/>
    <trip id="293" type="passenger" depart="879.00" from="-1249834219" to="23621955#4"/>
    <trip id="294" type="passenger" depart="882.00" from="-492340110" to="194083781#1"/>
    <trip id="295" type="passenger" depart="885.00" from="35588701" to="-150880960#2"/>
    <trip id="296" type="passenger" depart="888.00" from="-1087032637" to="1421547188"/>
    <trip id="297" type="passenger" depart="891.00" from="-37277630" to="32149009#0"/>
    <trip id="298" type="passenger" depart="894.00" from="-24634517#19" to="-35926360#5"/>
    <trip id="299" type="passenger" depart="897.00" from="-35628935" to="-25171366#1"/>
    <trip id="300" type="passenger" depart="900.00" from="-37137985#8" to="-143488697#6"/>
    <trip id="301" type="passenger" depart="903.00" from="34700544#2" to="29352765#3"/>
    <trip id="302" type="passenger" depart="906.00" from="-34716299" to="1427701268"/>
    <trip id="303" type="passenger" depart="909.00" from="-315358243#1" to="34583142#1"/>
    <trip id="304" type="passenger" depart="912.00" from="-891288460#2" to="1096079275#1"/>
    <trip id="305" type="passenger" depart="915.00" from="34581475#0" to="374522184#0"/>
    <trip id="306" type="passenger" depart="918.00" from="1424624808" to="-4396665#1"/>
    <trip id="307" type="passenger" depart="921.00" from="-28143435#0" to="31511868"/>
    <trip id="308" type="passenger" depart="924.00" from="-561601988#6" to="-45234452#2"/>
    <trip id="309" type="passenger" depart="927.00" from="1342971255" to="71512319#0"/>
    <trip id="310" type="passenger" depart="930.00" from="-31903311#7" to="24542064#5"/>
    <trip id="311" type="passenger" depart="933.00" from="-143488698#1" to="-24542060#5"/>
    <trip id="312" type="passenger" depart="936.00" from="-34714699#0" to="-26320457#6"/>
    <trip id="313" type="passenger" depart="939.00" from="147014260#1" to="-29399869#1"/>
    <trip id="314" type="passenger" depart="942.00" from="-28144168#1" to="-125858376#3"/>
    <trip id="315" type="passenger" depart="945.00" from="1205417077" to="-26320236#5"/>
    <trip id="316" type="passenger" depart="948.00" from="-32876325#3" to="229915409#1"/>
    <trip id="317" type="passenger" depart="951.00" from="-891944900" to="1239120741#2"/>
    <trip id="318" type="passenger" depart="954.00" from="193845445" to="-143488688#1"/>
    <trip id="319" type="passenger" depart="957.00" from="984258495#0" to="64226411#1"/>
    <trip id="320" type="passenger" depart="960.00" from="325180631#4" to="34566597#1"/>
    <trip id="321" type="passenger" depart="963.00" from="-172048394#0" to="-37255676"/>
    <trip id="322" type="passenger" depart="966.00" from="-33704757#1" to="62506457#0"/>
    <trip id="323" type="passenger" depart="969.00" from="24538235#1" to="172540725#3"/>
    <trip id="324" type="passenger" depart="972.00" from="24542059#2" to="890172828"/>
    <trip id="325" type="passenger" depart="975.00" from="-137550156#2" to="-23622232#1"/>
    <trip id="326" type="passenger" depart="978.00" from="981198954" to="1108053753#0"/>