<?xml version="1.0" encoding="UTF-8"?>

<!-- generated on 12/16/25 14:44:07 by Eclipse SUMO polyconvert Version 1.5.0
<configuration xmlns:xsi="http://www.w3.org/2001/XMLSchema-instance" xsi:noNamespaceSchemaLocation="http://sumo.dlr.de/xsd/polyconvertConfiguration.xsd">

    <input>
        <net-file value="neustadt.net.xml"/>
        <osm-files value="neustadt_raw.osm"/>
    </input>

    <output>
        <output-file value="neustadt.poly.xml"/>
    </output>

    <processing>
        <poi-layer-offset value="5"/>
    </processing>

</configuration>
-->

<additional xmlns:xsi="http://www.w3.org/2001/XMLSchema-instance" xsi:noNamespaceSchemaLocation="http://sumo.dlr.de/xsd/additional_file.xsd">
    <location netOffset="-697144.36,-5404150.54" convBoundary="-0.00,-1591.70,11053.37,17782.35" origBoundary="11.686143,48.743496,11.834221,48.915764" projParameter="+proj=utm +zone=32 +ellps=WGS84 +datum=WGS84 +units=m +no_defs"/>

    <poly id="1014378624" type="building" color="255,230,230" fill="1" layer="-1.00" shape="5338.377969,11327.537330 5336.303547,11318.536392 5342.012740,11317.230151 5340.877599,11312.292086 5354.406300,11309.199801 5357.615422,11323.149929 5338.377969,11327.537330"/>
    <poly id="1014378625" type="building" color="255,230,230" fill="1" layer="-1.00" shape="5309.591497,11398.130576 5306.997620,11385.638482 5322.231564,11382.496756 5324.817672,11394.999706 5309.591497,11398.130576"/>
    <poly id="1014378626" type="building" color="255,230,230" fill="1" layer="-1.00" shape="5291.153047,11398.318045 5293.530000,11407.886408 5287.046918,11409.476212 5284.669552,11399.918966 5291.153047,11398.318045"/>
    <poly id="1014378627" type="building" color="255,230,230" fill="1" layer="-1.00" shape="5294.387164,11435.851776 5292.542810,11425.367897 5302.039102,11423.709441 5303.883439,11434.193324 5294.387164,11435.851776"/>
    <poly id="1014378628" type="building" color="255,230,230" fill="1" layer="-1.00" shape="5304.772151,11421.649616 5303.013751,11413.450336 5309.111924,11412.147063 5310.877649,11420.346611 5304.772151,11421.649616"/>
    <poly id="1014378629" type="building" color="255,230,230" fill="1" layer="-1.00" shape="5317.702246,11427.349838 5315.196686,11415.662246 5326.482530,11413.256381 5328.988067,11424.943979 5317.702246,11427.349838"/>
    <poly id="1014378630" type="building" color="255,230,230" fill="1" layer="-1.00" shape="5366.807984,11462.287057 5364.391222,11452.605914 5374.809980,11450.012848 5377.226321,11459.705111 5366.807984,11462.287057"/>
    <poly id="1014378631" type="building" color="255,230,230" fill="1" layer="-1.00" shape="5325.528472,11451.661945 5323.157774,11439.901340 5336.819916,11437.170011 5339.183254,11448.930356 5325.528472,11451.661945"/>
    <poly id="1014378632" type="building" color="255,230,230" fill="1" layer="-1.00" shape="5330.003335,11503.753236 5327.157760,11493.544596 5337.282610,11490.751597 5340.120835,11500.959976 5330.003335,11503.753236"/>
    <poly id="1014378633" type="building" color="255,230,230" fill="1" layer="-1.00" shape="5353.756604,11500.164218 5352.279139,11494.746287 5358.011710,11493.196081 5359.496503,11498.614279 5353.756604,11500.164218"/>
    <poly id="1014378634" type="building" color="255,230,230" fill="1" layer="-1.00" shape="5311.415106,11484.414584 5308.794402,11474.280898 5327.918298,11469.366232 5330.539375,11479.488814 5311.415106,11484.414584"/>
    <poly id="1014378635" type="building" color="255,230,230" fill="1" layer="-1.00" shape="5373.051295,11468.712787 5371.718289,11462.754768 5380.431410,11460.823158 5381.764407,11466.781180 5373.051295,11468.712787"/>
    <poly id="1014378637" type="building" color="255,230,230" fill="1" layer="-1.00" shape="5591.640010,11407.433054 5587.550842,11398.113893 5598.161125,11393.491547 5599.855910,11397.370496 5603.086740,11395.963274 5605.473775,11401.403230 5591.640010,11407.433054"/>
    <poly id="1014378638" type="building" color="255,230,230" fill="1" layer="-1.00" shape="5580.313274,11382.481288 5574.432197,11370.336942 5580.464018,11367.428938 5586.352419,11379.573557 5580.313274,11382.481288"/>
    <poly id="1014378639" type="building" color="255,230,230" fill="1" layer="-1.00" shape="5556.064609,11461.485194 5552.166874,11449.323939 5563.927429,11445.578045 5567.817808,11457.739042 5556.064609,11461.485194"/>
    <poly id="1014378640" type="building" color="255,230,230" fill="1" layer="-1.00" shape="5668.224799,11703.328884 5674.018764,11688.381642 5683.881297,11692.190504 5678.079974,11707.137470 5668.224799,11703.328884"/>
    <poly id="1014378641" type="building" color="255,230,230" fill="1" layer="-1.00" shape="5935.586803,11750.155330 5932.633349,11741.934508 5946.210760,11737.087046 5949.164198,11745.307876 5935.586803,11750.155330"/>
    <poly id="1014378642" type="building" color="255,230,230" fill="1" layer="-1.00" shape="6074.874204,12317.549606 6069.494794,12307.615347 6081.163099,12301.329783 6086.549423,12311.275436 6074.874204,12317.549606"/>
    <poly id="1014378643" type="building" color="255,230,230" fill="1" layer="-1.00" shape="5840.210257,12053.037082 5835.090933,12043.401928 5841.857829,12040.053577 5846.565700,12049.696013 5840.210257,12053.037082"/>
    <poly id="1014378644" type="building" color="255,230,230" fill="1" layer="-1.00" shape="5812.154760,12075.821056 5809.092949,12070.779318 5811.743323,12069.173036 5806.256265,12060.158890 5813.546336,12055.750015 5812.472075,12053.996996 5815.437717,12052.201867 5822.199538,12063.310221 5817.529704,12066.133966 5820.391001,12070.834530 5812.154760,12075.821056"/>
    <poly id="1019562025" type="amenity" color="237,199,199" fill="1" layer="-1.00" shape="1384.171516,1321.553641 1385.840223,1317.439694 1389.763518,1319.025649 1390.650559,1316.831440 1407.678161,1323.712314 1406.977053,1325.434596 1412.474058,1327.655112 1408.927447,1336.387477 1399.826479,1332.703618 1400.527978,1330.970220 1387.329358,1325.638589 1388.305101,1323.224959 1384.171516,1321.553641"/>
    <poly id="1019562025#1" type="building" color="255,230,230" fill="1" layer="-1.00" shape="1384.171516,1321.553641 1385.840223,1317.439694 1389.763518,1319.025649 1390.650559,1316.831440 1407.678161,1323.712314 1406.977053,1325.434596 1412.474058,1327.655112 1408.927447,1336.387477 1399.826479,1332.703618 1400.527978,1330.970220 1387.329358,1325.638589 1388.305101,1323.224959 1384.171516,1321.553641"/>
    <poly id="1022780489" type="building" color="255,230,230" fill="1" layer="-1.00" shape="3544.669694,11076.545217 3544.529421,11080.646752 3548.665780,11080.795624 3548.806456,11076.682974 3544.669694,11076.545217"/>
    <poly id="1039670951" type="building" color="255,230,230" fill="1" layer="-1.00" shape="6315.944837,5706.950059 6320.890600,5711.225753 6325.424354,5706.026633 6322.424018,5703.435533 6320.478590,5701.750936 6315.944837,5706.950059"/>
    <poly id="1062516288" type="building" color="255,230,230" fill="1" layer="-1.00" shape="7428.218411,11846.095388 7428.233304,11850.492073 7419.363165,11848.686367 7419.346970,11846.125997 7428.218411,11846.095388"/>
    <poly id="1066030668" type="building" color="255,230,230" fill="1" layer="-1.00" shape="7002.289860,7103.020797 7010.947304,7105.830320 7015.797623,7090.960856 7007.140157,7088.151326 7002.289860,7103.020797"/>
    <poly id="1066030669" type="building" color="255,230,230" fill="1" layer="-1.00" shape="7048.381945,7212.783047 7044.079102,7215.897695 7038.039677,7207.619198 7036.877330,7208.455904 7030.963894,7200.348963 7031.907714,7199.660074 7025.441694,7190.787268 7035.549770,7183.466569 7039.384279,7188.737414 7041.694304,7187.063465 7052.484552,7201.881688 7050.997673,7202.951367 7054.775880,7208.153390 7048.381945,7212.783047"/>
    <poly id="1066030670" type="building" color="255,230,230" fill="1" layer="-1.00" shape="7050.082442,7215.115620 7048.381945,7212.783047 7054.775880,7208.153390 7056.483714,7210.486234 7050.082442,7215.115620"/>
    <poly id="1066030671" type="building" color="255,230,230" fill="1" layer="-1.00" shape="6892.472923,7109.223205 6892.256512,7109.916442 6898.425851,7111.833553 6900.956769,7103.712630 6894.787422,7101.795517 6892.472923,7109.223205"/>
    <poly id="1066030672" type="building" color="255,230,230" fill="1" layer="-1.00" shape="6886.259951,7107.293377 6892.472923,7109.223205 6894.787422,7101.795517 6888.574442,7099.865686 6886.259951,7107.293377"/>
    <poly id="1066030673" type="building" color="255,230,230" fill="1" layer="-1.00" shape="6982.654211,6994.638018 6989.240599,6982.135767 6986.824943,6980.867745 6987.701391,6979.208134 6970.603379,6970.258341 6965.208983,6980.511551 6966.297743,6981.085558 6964.236682,6984.994502 6982.654211,6994.638018"/>
    <poly id="1066030674" type="building" color="255,230,230" fill="1" layer="-1.00" shape="6931.583310,6968.720731 6933.644759,6964.800661 6932.260354,6964.071174 6937.662039,6953.818202 6960.168493,6965.603234 6959.291646,6967.273963 6960.712338,6968.015913 6954.125597,6980.529310 6931.583310,6968.720731"/>
    <poly id="1066030677" type="building" color="255,230,230" fill="1" layer="-1.00" shape="6814.594591,7017.076383 6820.338649,7020.780808 6827.676288,7009.429893 6821.931816,7005.736575 6814.594591,7017.076383"/>
    <poly id="1066030678" type="building" color="255,230,230" fill="1" layer="-1.00" shape="6808.850119,7013.383079 6814.594591,7017.076383 6821.931816,7005.736575 6816.194676,7002.043532 6808.850119,7013.383079"/>
    <poly id="1066030679" type="building" color="255,230,230" fill="1" layer="-1.00" shape="6795.667975,7002.050527 6801.550292,7005.793369 6805.774706,6999.192205 6799.899724,6995.449627 6795.667975,7002.050527"/>
    <poly id="1066030680" type="building" color="255,230,230" fill="1" layer="-1.00" shape="6866.452693,6901.367837 6873.038900,6888.865456 6870.623179,6887.597485 6871.500009,6885.926743 6854.401535,6876.977319 6849.007287,6887.230637 6850.096076,6887.804620 6848.034665,6891.724720 6866.452693,6901.367837"/>
    <poly id="1066030681" type="building" color="255,230,230" fill="1" layer="-1.00" shape="6905.314832,6921.718816 6928.398083,6933.814147 6930.459540,6929.894076 6931.743232,6930.564235 6937.144942,6920.311262 6913.657538,6908.011929 6912.781104,6909.671551 6911.901110,6909.216478 6905.314832,6921.718816"/>
    <poly id="1066030682" type="building" color="255,230,230" fill="1" layer="-1.00" shape="6875.466763,6906.093263 6877.528190,6902.173173 6876.143762,6901.443701 6881.538051,6891.190409 6904.044873,6902.975203 6903.168441,6904.634826 6904.596090,6905.388144 6898.002486,6917.890222 6875.466763,6906.093263"/>
    <poly id="1066031973" type="building" color="255,230,230" fill="1" layer="-1.00" shape="1557.629063,1503.465247 1568.780626,1511.740410 1572.533849,1506.721265 1575.437896,1502.829314 1564.286718,1494.543023 1557.629063,1503.465247"/>
    <poly id="1066135919" type="building" color="255,230,230" fill="1" layer="-1.00" shape="1517.780578,1443.680783 1505.239815,1434.955770 1512.624812,1424.401175 1526.673235,1434.170191 1523.349032,1438.915265 1519.288222,1444.724769 1517.780578,1443.680783"/>
    <poly id="1066135920" type="building" color="255,230,230" fill="1" layer="-1.00" shape="1532.211703,1450.336305 1540.172683,1455.871744 1546.340746,1447.065649 1535.774148,1439.712728 1532.077959,1444.989879 1529.606095,1448.518835 1532.211703,1450.336305"/>
    <poly id="1066135921" type="building" color="255,230,230" fill="1" layer="-1.00" shape="1522.817255,1449.123458 1529.701135,1453.919528 1532.211703,1450.336305 1529.606095,1448.518835 1532.077959,1444.989879 1527.799683,1442.011274 1522.817255,1449.123458"/>
    <poly id="1066135922" type="building" color="255,230,230" fill="1" layer="-1.00" shape="1517.780578,1443.680783 1519.288222,1444.724769 1523.349032,1438.915265 1527.799683,1442.011274 1522.817255,1449.123458 1521.499648,1451.013014 1515.541752,1446.861910 1517.780578,1443.680783"/>
    <poly id="1066135923" type="building" color="255,230,230" fill="1" layer="-1.00" shape="1351.782196,1439.934978 1360.173003,1447.043389 1374.971108,1429.685152 1366.580291,1422.576719 1351.782196,1439.934978"/>
    <poly id="1066135924" type="building" color="255,230,230" fill="1" layer="-1.00" shape="1378.203241,1456.129833 1387.824229,1445.365114 1380.065898,1438.468292 1370.444914,1449.233025 1378.203241,1456.129833"/>
    <poly id="1066135925" type="building" color="255,230,230" fill="1" layer="-1.00" shape="1273.808816,1474.404136 1286.419976,1483.431582 1293.453244,1473.654368 1280.849417,1464.627168 1273.808816,1474.404136"/>
    <poly id="1066135926" type="building" color="255,230,230" fill="1" layer="-1.00" shape="1237.896463,1487.719644 1241.631042,1482.388037 1235.637050,1478.213704 1231.902474,1483.545315 1237.896463,1487.719644"/>
    <poly id="1066135927" type="building" color="255,230,230" fill="1" layer="-1.00" shape="1220.262868,1496.898387 1216.461805,1502.238777 1222.395829,1506.444349 1226.196501,1501.115077 1220.262868,1496.898387"/>
    <poly id="1066135928" type="building" color="255,230,230" fill="1" layer="-1.00" shape="1222.734183,1487.571365 1218.233047,1493.777201 1227.119326,1500.190760 1231.620468,1493.984931 1222.734183,1487.571365"/>
    <poly id="1066135929" type="building" color="255,230,230" fill="1" layer="-1.00" shape="1227.235328,1481.365532 1222.734183,1487.571365 1231.620468,1493.984931 1236.121620,1487.779105 1227.235328,1481.365532"/>
    <poly id="1066135930" type="building" color="255,230,230" fill="1" layer="-1.00" shape="1350.033357,1616.470591 1349.286789,1618.024338 1354.776266,1620.656301 1357.451978,1615.109132 1351.962496,1612.477166 1350.033357,1616.470591"/>
    <poly id="1066135931" type="building" color="255,230,230" fill="1" layer="-1.00" shape="1340.341523,1611.831039 1350.033357,1616.470591 1351.962496,1612.477166 1353.686038,1608.888198 1343.994192,1604.248640 1340.341523,1611.831039"/>
    <poly id="1066135932" type="building" color="255,230,230" fill="1" layer="-1.00" shape="1327.119368,1598.475048 1335.242272,1602.969868 1338.652262,1596.836683 1330.529352,1592.341858 1327.119368,1598.475048"/>
    <poly id="1066135933" type="building" color="255,230,230" fill="1" layer="-1.00" shape="1316.675155,1595.344569 1325.988132,1600.504799 1327.119368,1598.475048 1330.529352,1592.341858 1321.216363,1587.181621 1316.675155,1595.344569"/>
    <poly id="1066135934" type="building" color="255,230,230" fill="1" layer="-1.00" shape="1296.064199,1632.260831 1291.464212,1630.472864 1291.900347,1629.375491 1284.653652,1626.514319 1283.974651,1628.237397 1280.956833,1627.050868 1282.128517,1624.087753 1278.298160,1622.583057 1280.826268,1616.218241 1284.373671,1617.612743 1287.467689,1609.810180 1291.072682,1611.240115 1292.615826,1607.344261 1303.162932,1611.513294 1297.152253,1626.679562 1301.512574,1628.381131 1296.064199,1632.260831"/>
    <poly id="1066135935" type="building" color="255,230,230" fill="1" layer="-1.00" shape="1299.967983,1637.707622 1307.959107,1632.026311 1304.055721,1626.568400 1301.512574,1628.381131 1296.064199,1632.260831 1299.967983,1637.707622"/>
    <poly id="1066135937" type="building" color="255,230,230" fill="1" layer="-1.00" shape="1134.040288,1646.044779 1134.719312,1636.643060 1139.370956,1636.974901 1139.040038,1641.536960 1142.414999,1641.779028 1142.059535,1646.618427 1134.040288,1646.044779"/>
    <poly id="1066135938" type="building" color="255,230,230" fill="1" layer="-1.00" shape="1134.040288,1646.044779 1142.059535,1646.618427 1141.532236,1654.022406 1138.355238,1653.798485 1138.658854,1649.591569 1133.809265,1649.241581 1134.040288,1646.044779"/>
    <poly id="1066135939" type="building" color="255,230,230" fill="1" layer="-1.00" shape="1165.847745,1617.771163 1164.896896,1623.635526 1159.243413,1622.722848 1160.194256,1616.858485 1165.847745,1617.771163"/>
    <poly id="1066135940" type="building" color="255,230,230" fill="1" layer="-1.00" shape="1159.579923,1616.758803 1160.194256,1616.858485 1165.847745,1617.771163 1168.926755,1618.269835 1170.742247,1607.105605 1161.395791,1605.583456 1159.579923,1616.758803"/>
    <poly id="1066135941" type="building" color="255,230,230" fill="1" layer="-1.00" shape="1155.684771,1642.182739 1155.329801,1647.422780 1162.359662,1647.894607 1162.714638,1642.654566 1160.527807,1642.510256 1155.684771,1642.182739"/>
    <poly id="1066135942" type="building" color="255,230,230" fill="1" layer="-1.00" shape="1151.634345,1641.905586 1155.684771,1642.182739 1160.527807,1642.510256 1161.386097,1629.921028 1149.381325,1629.105889 1148.825250,1637.321224 1151.936535,1637.531692 1151.634345,1641.905586"/>
    <poly id="1066135943" type="building" color="255,230,230" fill="1" layer="-1.00" shape="1152.265038,1667.890615 1151.992143,1674.135127 1160.761204,1674.512821 1161.033713,1668.279424 1152.265038,1667.890615"/>
    <poly id="1066135944" type="building" color="255,230,230" fill="1" layer="-1.00" shape="1146.507146,1667.641952 1152.265038,1667.890615 1161.033713,1668.279424 1161.856495,1668.308597 1162.463894,1654.497473 1150.595855,1653.976516 1150.223546,1662.610119 1146.734857,1662.464169 1146.507146,1667.641952"/>
    <poly id="1066136343" type="building" color="255,230,230" fill="1" layer="-1.00" shape="1448.530233,1137.948287 1447.793375,1141.505495 1453.197374,1142.621019 1453.941583,1139.064073 1448.530233,1137.948287"/>
    <poly id="1066136344" type="building" color="255,230,230" fill="1" layer="-1.00" shape="1439.876951,1136.149861 1448.530233,1137.948287 1453.941583,1139.064073 1457.176558,1139.735352 1459.057701,1130.676793 1441.757671,1127.102411 1439.876951,1136.149861"/>
    <poly id="1066136345" type="building" color="255,230,230" fill="1" layer="-1.00" shape="1430.102543,1127.389741 1433.494024,1111.841251 1441.443612,1113.570169 1438.052109,1129.118654 1430.102543,1127.389741"/>
    <poly id="1066136346" type="building" color="255,230,230" fill="1" layer="-1.00" shape="1491.280692,1129.773317 1504.586171,1137.078704 1509.963587,1127.343071 1496.658090,1120.037671 1491.280692,1129.773317"/>
    <poly id="107602696" type="building" color="255,230,230" fill="1" layer="-1.00" shape="5665.559426,4590.676862 5668.692208,4556.423977 5670.105503,4540.983598 5654.921791,4539.597826 5654.506754,4544.145684 5621.325006,4541.127461 5621.982051,4533.961924 5623.447173,4517.900194 5598.853947,4515.661201 5595.135256,4556.347698 5598.022201,4556.619382 5595.496122,4584.294754 5665.559426,4590.676862"/>
    <poly id="107602696#1" type="shop" color="237,199,255" fill="1" layer="-1.00" shape="5665.559426,4590.676862 5668.692208,4556.423977 5670.105503,4540.983598 5654.921791,4539.597826 5654.506754,4544.145684 5621.325006,4541.127461 5621.982051,4533.961924 5623.447173,4517.900194 5598.853947,4515.661201 5595.135256,4556.347698 5598.022201,4556.619382 5595.496122,4584.294754 5665.559426,4590.676862"/>
    <poly id="1076909016" type="building" color="255,230,230" fill="1" layer="-1.00" shape="7507.480654,2115.038234 7509.760459,2122.889891 7515.184383,2121.407876 7512.599310,2113.456011 7507.480654,2115.038234"/>
    <poly id="1076909017" type="building" color="255,230,230" fill="1" layer="-1.00" shape="7512.599310,2113.456011 7511.561116,2110.268435 7527.073793,2105.260421 7531.655609,2119.350824 7516.142964,2124.358825 7515.184383,2121.407876 7512.599310,2113.456011"/>
    <poly id="1076909037" type="building" color="255,230,230" fill="1" layer="-1.00" shape="7676.125104,2184.749689 7684.507622,2186.436758 7686.052417,2178.803009 7677.677234,2177.116206 7676.125104,2184.749689"/>
    <poly id="1076909037#1" type="shop" color="237,199,255" fill="1" layer="-1.00" shape="7676.125104,2184.749689 7684.507622,2186.436758 7686.052417,2178.803009 7677.677234,2177.116206 7676.125104,2184.749689"/>
    <poly id="1076909038" type="building" color="255,230,230" fill="1" layer="-1.00" shape="7791.720957,2166.047418 7806.660713,2165.637833 7806.336288,2153.817758 7791.389155,2154.227075 7791.720957,2166.047418"/>
    <poly id="1076909039" type="building" color="255,230,230" fill="1" layer="-1.00" shape="7799.949666,2144.635733 7807.077215,2145.041639 7807.607924,2135.578928 7800.480362,2135.173022 7799.949666,2144.635733"/>
    <poly id="1080399706" type="building" color="255,230,230" fill="1" layer="-1.00" shape="1359.436107,1568.117246 1368.519781,1573.313921 1371.773279,1567.653723 1362.681856,1562.467897 1359.436107,1568.117246"/>
    <poly id="1080399707" type="building" color="255,230,230" fill="1" layer="-1.00" shape="1434.165771,1574.854198 1438.229815,1577.235320 1440.695468,1573.049529 1436.631421,1570.668406 1434.165771,1574.854198"/>
    <poly id="1080399708" type="building" color="255,230,230" fill="1" layer="-1.00" shape="1432.737804,1590.005003 1435.413759,1584.246433 1424.478718,1579.195354 1421.810119,1584.954190 1432.737804,1590.005003"/>
    <poly id="1080399709" type="building" color="255,230,230" fill="1" layer="-1.00" shape="1443.868315,1594.729185 1449.715368,1585.633390 1439.861959,1579.329783 1434.014917,1588.425589 1443.868315,1594.729185"/>
    <poly id="1080399710" type="building" color="255,230,230" fill="1" layer="-1.00" shape="1415.910092,1547.475449 1429.345909,1555.019045 1430.319523,1555.565523 1435.932108,1545.615624 1421.515311,1537.525275 1415.910092,1547.475449"/>
    <poly id="1080399711" type="building" color="255,230,230" fill="1" layer="-1.00" shape="1411.623923,1555.079833 1425.060120,1562.612305 1429.345909,1555.019045 1415.910092,1547.475449 1411.623923,1555.079833"/>
    <poly id="1080399712" type="building" color="255,230,230" fill="1" layer="-1.00" shape="1403.366153,1550.446573 1411.623923,1555.079833 1415.910092,1547.475449 1421.515311,1537.525275 1413.264472,1532.903377 1403.366153,1550.446573"/>
    <poly id="1080399713" type="building" color="255,230,230" fill="1" layer="-1.00" shape="1411.866575,1494.994673 1405.069426,1491.069849 1402.021464,1496.325575 1408.818608,1500.250394 1411.866575,1494.994673"/>
    <poly id="1080399714" type="building" color="255,230,230" fill="1" layer="-1.00" shape="1414.066236,1503.274449 1417.114206,1498.018730 1411.866575,1494.994673 1408.818608,1500.250394 1414.066236,1503.274449"/>
    <poly id="1080399715" type="building" color="255,230,230" fill="1" layer="-1.00" shape="1395.942803,1513.603755 1399.989210,1515.861806 1402.690393,1511.050037 1398.651330,1508.792245 1395.942803,1513.603755"/>
    <poly id="1080399716" type="building" color="255,230,230" fill="1" layer="-1.00" shape="1387.172431,1508.696373 1395.942803,1513.603755 1398.651330,1508.792245 1404.398650,1498.568887 1395.628260,1493.661492 1387.172431,1508.696373"/>
    <poly id="1080399717" type="building" color="255,230,230" fill="1" layer="-1.00" shape="1475.985974,1557.776882 1466.719706,1551.716651 1459.730465,1562.318732 1469.003673,1568.390327 1475.985974,1557.776882"/>
    <poly id="1080399718" type="building" color="255,230,230" fill="1" layer="-1.00" shape="1472.673199,1537.761507 1464.462658,1550.234312 1466.719706,1551.716651 1475.985974,1557.776882 1484.196532,1545.304093 1472.673199,1537.761507"/>
    <poly id="1080399719" type="building" color="255,230,230" fill="1" layer="-1.00" shape="1378.732347,1544.219342 1382.095031,1538.384969 1371.267000,1532.180441 1368.257006,1537.404144 1371.438006,1539.175191 1371.076400,1539.830064 1378.732347,1544.219342"/>
    <poly id="1080399720" type="building" color="255,230,230" fill="1" layer="-1.00" shape="1372.681165,1532.542232 1374.118026,1529.777728 1376.920059,1525.025171 1371.235837,1522.074682 1370.485457,1523.528135 1368.559190,1527.232318 1367.256294,1529.745622 1372.681165,1532.542232"/>
    <poly id="1080399721" type="building" color="255,230,230" fill="1" layer="-1.00" shape="1385.619021,1536.295490 1390.881862,1527.078743 1379.518069,1520.632612 1376.920059,1525.025171 1374.118026,1529.777728 1385.619021,1536.295490"/>
    <poly id="1080399722" type="building" color="255,230,230" fill="1" layer="-1.00" shape="1365.454654,1525.586400 1368.559190,1527.232318 1370.485457,1523.528135 1367.417256,1521.894635 1365.454654,1525.586400"/>
    <poly id="1080399723" type="building" color="255,230,230" fill="1" layer="-1.00" shape="1354.739681,1522.412863 1364.406963,1527.541211 1365.454654,1525.586400 1367.417256,1521.894635 1368.685245,1519.535889 1359.025299,1514.407795 1354.739681,1522.412863"/>
    <poly id="1080399724" type="building" color="255,230,230" fill="1" layer="-1.00" shape="1425.277531,1513.187321 1421.216514,1520.042956 1425.769905,1522.730779 1429.830926,1515.875147 1425.277531,1513.187321"/>
    <poly id="1080399725" type="building" color="255,230,230" fill="1" layer="-1.00" shape="1408.576949,1514.931404 1420.191387,1521.775990 1421.216514,1520.042956 1425.277531,1513.187321 1426.694054,1510.789347 1415.079600,1503.944748 1408.576949,1514.931404"/>
    <poly id="1080399726" type="building" color="255,230,230" fill="1" layer="-1.00" shape="1372.427343,1511.923293 1381.796527,1517.575257 1387.172431,1508.696373 1377.803236,1503.044400 1372.427343,1511.923293"/>
    <poly id="1080399727" type="building" color="255,230,230" fill="1" layer="-1.00" shape="1369.786171,1497.429307 1379.014275,1502.497577 1383.282337,1494.781242 1374.054617,1489.701851 1369.786171,1497.429307"/>
    <poly id="1080399728" type="building" color="255,230,230" fill="1" layer="-1.00" shape="1368.304405,1544.772874 1371.076400,1539.830064 1371.438006,1539.175191 1368.257006,1537.404144 1364.109726,1535.086893 1360.976131,1540.684581 1368.304405,1544.772874"/>
    <poly id="1080399729" type="building" color="255,230,230" fill="1" layer="-1.00" shape="1346.967465,1542.646796 1364.142155,1552.203633 1368.304405,1544.772874 1360.976131,1540.684581 1351.137043,1535.216286 1346.967465,1542.646796"/>
    <poly id="1080399730" type="building" color="255,230,230" fill="1" layer="-1.00" shape="1398.145927,1609.642810 1401.361917,1604.003553 1399.480029,1602.935184 1394.129644,1599.907489 1390.913659,1605.546750 1398.145927,1609.642810"/>
    <poly id="1080399731" type="building" color="255,230,230" fill="1" layer="-1.00" shape="1407.361235,1607.399276 1401.361917,1604.003553 1398.145927,1609.642810 1404.144845,1613.049643 1407.361235,1607.399276"/>
    <poly id="1080399732" type="building" color="255,230,230" fill="1" layer="-1.00" shape="1399.480029,1602.935184 1401.361917,1604.003553 1407.361235,1607.399276 1411.478267,1609.737746 1417.628450,1598.938897 1405.637541,1592.136583 1399.480029,1602.935184"/>
    <poly id="1080399733" type="building" color="255,230,230" fill="1" layer="-1.00" shape="1370.452301,1587.048279 1382.763289,1594.574098 1387.775555,1586.405661 1375.464159,1578.890946 1370.452301,1587.048279"/>
    <poly id="1080399734" type="building" color="255,230,230" fill="1" layer="-1.00" shape="1353.394512,1586.843479 1365.366852,1593.756302 1370.043771,1585.709490 1358.071418,1578.796657 1354.303100,1585.284354 1353.394512,1586.843479"/>
    <poly id="1080399735" type="building" color="255,230,230" fill="1" layer="-1.00" shape="1338.020619,1576.705124 1354.303100,1585.284354 1358.071418,1578.796657 1361.059248,1573.160410 1344.516608,1564.449516 1338.020619,1576.705124"/>
    <poly id="1080399736" type="building" color="255,230,230" fill="1" layer="-1.00" shape="1361.535378,1599.329218 1366.381477,1605.788808 1371.148787,1602.241109 1366.295738,1595.770139 1361.535378,1599.329218"/>
    <poly id="1080399739" type="building" color="255,230,230" fill="1" layer="-1.00" shape="1546.675130,1601.229420 1550.323925,1595.627872 1544.478466,1591.836832 1540.829281,1597.449498 1546.675130,1601.229420"/>
    <poly id="1080399740" type="building" color="255,230,230" fill="1" layer="-1.00" shape="1562.966850,1604.156332 1560.353159,1608.158759 1570.556096,1614.764349 1573.032976,1610.679166 1562.966850,1604.156332"/>
    <poly id="1080399741" type="building" color="255,230,230" fill="1" layer="-1.00" shape="1546.675130,1601.229420 1559.473661,1609.518574 1560.353159,1608.158759 1562.966850,1604.156332 1565.573594,1600.142532 1552.775048,1591.853364 1550.323925,1595.627872 1546.675130,1601.229420"/>
    <poly id="1080399742" type="building" color="255,230,230" fill="1" layer="-1.00" shape="1585.178418,1619.957872 1583.482371,1622.768760 1588.343203,1625.701348 1590.046598,1622.890722 1585.178418,1619.957872"/>
    <poly id="1080399743" type="building" color="255,230,230" fill="1" layer="-1.00" shape="1569.563875,1616.398370 1582.584228,1624.239194 1583.482371,1622.768760 1585.178418,1619.957872 1588.296411,1614.804883 1575.276042,1606.964046 1573.032976,1610.679166 1570.556096,1614.764349 1569.563875,1616.398370"/>
    <poly id="1080399744" type="building" color="255,230,230" fill="1" layer="-1.00" shape="1597.650068,1640.755069 1601.116895,1635.514327 1597.487180,1633.126257 1594.019960,1638.378116 1597.650068,1640.755069"/>
    <poly id="1080399745" type="building" color="255,230,230" fill="1" layer="-1.00" shape="1607.033691,1626.532445 1601.116895,1635.514327 1597.650068,1640.755069 1609.057063,1648.249289 1618.440705,1634.026683 1607.033691,1626.532445"/>
    <poly id="1080399746" type="building" color="255,230,230" fill="1" layer="-1.00" shape="1523.956557,1669.686113 1520.488019,1675.805988 1530.626557,1681.530072 1534.253958,1675.493746 1523.956557,1669.686113"/>
    <poly id="1080399747" type="building" color="255,230,230" fill="1" layer="-1.00" shape="1507.611704,1671.987807 1519.012563,1678.413287 1520.488019,1675.805988 1523.956557,1669.686113 1512.555684,1663.260623 1507.611704,1671.987807"/>
    <poly id="1080399748" type="building" color="255,230,230" fill="1" layer="-1.00" shape="1506.300471,1693.786463 1519.163439,1701.499143 1520.385890,1693.797135 1509.325772,1688.340803 1506.300471,1693.786463"/>