<?xml version="1.0" encoding="UTF-8"?>

<!-- generated on 12/16/25 14:44:23 by Eclipse SUMO duarouter Version 1.5.0
<configuration xmlns:xsi="http://www.w3.org/2001/XMLSchema-instance" xsi:noNamespaceSchemaLocation="http://sumo.dlr.de/xsd/duarouterConfiguration.xsd">

    <input>
        <net-file value="neustadt.net.xml"/>
        <route-files value="trips.trips.xml"/>
    </input>

    <output>
        <output-file value="neustadt.trips.xml"/>
        <alternatives-output value="neustadt.trips.alt.xml"/>
    </output>

    <time>
        <begin value="0"/>
        <end value="3600.0"/>
    </time>

    <report>
        <no-warnings value="true"/>
        <ignore-errors value="true"/>
        <no-step-log value="true"/>
    </report>

</configuration>
-->

<routes xmlns:xsi="http://www.w3.org/2001/XMLSchema-instance" xsi:noNamespaceSchemaLocation="http://sumo.dlr.de/xsd/routes_file.xsd">
    <vehicle id="0" depart="0.00">
        <route edges="-35818297#0 35818300#0 35818300#1 1037717375#0 1037717375#1 50865799#0 50865799#1 50865799#2 50865799#3 50865799#5 50865799#6 140042064#0 140042064#1 140042064#2 140042064#3 485508798#0 485508798#1 485508797#0 485508797#1 485508797#2 140042062#0 140042062#1 140042062#2 485508796 50865813 1035034520 1217281745 202895448 202895447 36799753 39622112 80715797 1217281748 1332870059 1327085653 80716026#0 80716026#1 80716026#2 50865801 1332872921#0 1332872921#1 1153435925#0 1153435925#1 1035028790#0 1035028790#1 485508774 490666649 1386850179 485508775 38228166 330042974 395860700 969534090 969534089 32787661 395860451 1050289800#0 1050289800#1 1429576632 395860460#0 395860460#1 395860460#2 395860460#3 395860460#4 395860460#5 395860460#6 395860460#7 25026218#0 25026218#1 25026218#2 1299807441 -485575723#6 39179155#0 39179155#1 -406613067#2 -406613067#1 438233142"/>
    </vehicle>
    <vehicle id="1" depart="2.00">
        <route edges="35818290#1 35818290#2 35818295#1 50865799#3 50865799#5 50865799#6 140042064#0 140042064#1 140042064#2 140042064#3 485508798#0 485508798#1 485508797#0 485508797#1 485508797#2 140042062#0 140042062#1 140042062#2 485508796 50865813 1035034520 1217281745 202895448 202895447 36799753 39622112 80715797 1217281748 1332870059 1327085653 80716026#0 80716026#1 80716026#2 50865801 1332872921#0 1332872921#1 1153435925#0 1153435925#1 1035028790#0 1035028790#1 485508774 392474783 490666650 392474781#0 392474781#1 39184305#0 39184305#1 39184305#2 39184305#4 39184305#5 39184305#6 39184305#7 24786320#3 24786320#4 24786320#0 39181603#0 -70534468#1 39181604 39333808#1 39333808#0"/>
    </vehicle>
    <vehicle id="2" depart="4.00">
        <route edges="-281817291#0 -281817295 -1005953432 -1276794245 -1005953431 -140042067 -1423375754 -1423375755 -24618667 -1423375756 -24618804 -1037783926 -24618797#2 -24618797#1 -24618797#0 -1423375757 -24618674 485508787 -26735814#1 -26735814#0 -229599380 -38379352#3 -38379352#2 -38379352#1 -38379352#0 -24691217 -367429062#1 -367429062#0 -24690788#3 -24690788#2 -24690788#1 -24690788#0 -1070423328#1 -1070423328#0 -26735809#1 -26735809#0 26735808 24618733 367429064#0 367429064#1 367429064#2 367429064#3 367429064#4 367429064#5 367429064#6 367429064#7 367429064#8 1387599233 52118562#0 52118562#1 52118562#2 52118562#3 52118562#4 52118562#5 879793902 24623130 125064109 261657863 1448008505 261657864#0 261657864#1 137570976 1111810807#0 1111810807#1 1160946208 137570975 224011436 1037783927 1160946207 367430267#0 367430267#1 32704334#0 32704334#1 32704334#2 41571244#0 41571244#1 41571244#2 41571244#3 484258601 34339226 137570978 728247204 496184290#0 496184290#1 41571495#0 41571495#1 41571495#2 86124303 1039915025 288305313 261109570 1086199222 41571785 126175881 33083171#0 33083171#1 33083171#2 -33083171#2 -33083171#1"/>
    </vehicle>
    <vehicle id="3" depart="6.00">
        <route edges="571034480#0 571034480#1 709362338#2 709015122#0 709015122#1 24908064#0 24908064#1 24908064#2 24908064#3 24908064#4 49602185#0 49602185#1 49602185#2 49602185#3 49602185#4 1388622816#0 1388622816#1 1388622816#2 1388622816#3 1388622816#4 28022398#0 28022398#1 1160941837#0 1160941837#1 208020611 208020610#0 208020610#1 208020612 208020609#0 208020609#1 1223052674 1223052673 -30889502 -30889500 -208020575 -548996313 -208020577 -50002640 -1185467047"/>
    </vehicle>
    <vehicle id="4" depart="8.00">
        <route edges="539224396#1 -539224396#1 -539224396#0 140042064#1 140042064#2 140042064#3 485508798#0 485508798#1 485508797#0 485508797#1 485508797#2 140042062#0 140042062#1 140042062#2 485508796 50865813 1035034520 1217281745 202895448 202895447 36799753 39622112 80715797 1217281748 1332870059 1327085653 80716026#0 80716026#1 80716026#2 50865801 1332872921#0 1332872921#1 1153435925#0 1153435925#1 1035028790#0 1035028790#1 485508774 490666649 1386850179 485508775 38228166 330042974 395860700 969534090 969534089 32787661 395860451 1050289800#0 1050289800#1 1429576632 395860460#0 395860460#1 395860460#2 395860460#3 395860460#4 395860460#5 395860460#6 395860460#7 25026218#0 25026218#1 25026218#2"/>
    </vehicle>
    <vehicle id="5" depart="10.00">
        <route edges="-41571505#0 -41571785 -1086199222 -261109570 -288305313 -1039915025 -86124303 -41571495#2 -41571495#1 -41571495#0 -496184290#1 -496184290#0 -728247204 -137570978 -34339226 -484258601 -41571244#3 -41571244#2 -41571244#1 -41571244#0 -32704334#2 -32704334#1 -32704334#0 -367430267#1 -367430267#0 -1160946207 -1037783927 -224011436 -137570975 -1160946208 -1111810807#1 -1111810807#0 -137570976 -261657864#1 -261657864#0 -1448008505 -261657863 -125064109 -24623130 -879793902 -52118562#5 -52118562#4 -52118562#3 -52118562#2 -52118562#1 -52118562#0 -39180912#4 -39180912#3 -39180912#2 -39180912#0 -659994010 -659994011 -1160946209 -1160946210 -39207105#2 -39207105#1 -39207105#0 -1160946211 -441782986 -39207106 -1294885852 -441782987#2 -441782987#1 -441782987#0 -24049082#3 24049082#3"/>
    </vehicle>
    <vehicle id="6" depart="12.00">
        <route edges="125063601#0 125063601#1 24644961 -24622042#0 -125064109 -24623130 -879793902 -52118562#5 -52118562#4 -52118562#3 -52118562#2 -52118562#1 -52118562#0 -39180912#4 -39180912#3 -39180912#2 -39180912#0 -659994010 -659994011 -1160946209 -1160946210 -39207105#2 -39207105#1 -39207105#0 -1160946211 -441782986 -39207106 -1294885852 -441782987#2 -441782987#1 -441782987#0 -24049082#3 -24049082#2 -24049082#1 -24049082#0 398904775 1111814204 398904776 24723838#0 24723838#1 24723838#2 32702545 1035028789 -1035028788 -39207665 -1035028787 -1035028786 -1389871995 -1389871994 1389871991#1 1389871991#2 -208020606#2 -208020606#1 -208020606#0 -208020604 -24054542#4 -24054542#3 -24054542#2 -24054542#1 -24054542#0 -1223052678 -1160941836 953785917 28022347 5010183 -1223052675 -317730270 -30889502 -30889500 -208020575"/>
    </vehicle>
    <vehicle id="7" depart="14.00">
        <route edges="52118562#0 52118562#1 -52118562#1 -52118562#0 -39180912#4 -39180912#3 -39180912#2 -39180912#0 -659994010 -659994011 -1160946209 -1160946210 -39207105#2 -39207105#1 -39207105#0 -1160946211 -441782986 -39207106 -1294885852 -441782987#2 -441782987#1 -441782987#0 39180775 441782985 548719921 39201213#0 39201213#1 -490549209 -438239535#2 -438239535#1 -438239535#0 -39181541#2 -39181542 -39181541#0 -1448212776#0 -39179178#8 -39179178#6 -39179178#5"/>
    </vehicle>
    <vehicle id="8" depart="16.00">
        <route edges="36523533#3 -36523544#6 -36523544#5 -36523544#4 -36523544#3 -36523544#2 -36523544#1 -36523544#0 485508776#0 485508776#1 25026206 25026218#0 25026218#1 25026218#2 1299807441 227632108#0 227632108#1 227632108#2 227632108#3 227632108#4 485508783#1 398904778 1111814207 398904780 1111814204 398904776 24723838#0 24723838#1 24723838#2 32702545 1035028789 -1035028788 -39207665 -1035028787 -1035028786 -1389871995 -1389871994 1389871991#1 1389871991#2 -208020606#2 -208020606#1 -208020606#0 -208020604 -24054542#4 -24054542#3 -24054542#2 -24054542#1 -24054542#0 -1223052678 -1160941836 953785917 28022347 5010183 -1223052675 -317730270 -1223052673 -1223052674 -208020609#1 -208020609#0 -208020612 -208020610#1 -208020610#0 -208020611 -1160941837#1 -1160941837#0 -28022398#1 -28022398#0 -1388622816#4 -1388622816#3 -1388622816#2 -1388622816#1 -1388622816#0 -49602185#4 -49602185#3 -49602185#2 -49602185#1 -49602185#0 -24908064#4 -24908064#3 -24908064#2 -24908064#1 -24908064#0 -709015122#1 -709015122#0 -709362338#2 -709362338#1 -709362338#0 -144080364#3 -144080364#2 -144080364#1 -144080364#0 -491914404#3 -491914404#2 -491914404#1 -491914404#0 -507985424 -144080367 -181275129#6 -181275129#5 -709016500 -186786343#0"/>
    </vehicle>
    <vehicle id="9" depart="18.00">
        <route edges="-77412314#1 -77412314#0 -25026036 -488544399#1 -488544399#0 -77412321 -1037783925 -77412309 -25859621#1 -25859621#0 -25859619 -491914404#3 -491914404#2 -491914404#1 -491914404#0 -507985424 -144080367 -27255311 -27255283#2 -27255283#1 -27255283#0 27255283#0 27255283#1 27255283#2"/>
    </vehicle>
    <vehicle id="10" depart="20.00">
        <route edges="-35818272 -35818290#0 -35818299#1 -35818276#2 -35818276#1 35818275#0 35818275#1 -35818288#1 -35818288#0 35818289#3 140042062#0 140042062#1 140042062#2 485508796 50865813 1035034520 1217281745 202895448 202895447 36799753 39622112 80715797 1217281748 1332870059 1327085653 80716026#0 80716026#1 80716026#2 50865801 1332872921#0 1332872921#1 1153435925#0 1153435925#1 1035028790#0 1035028790#1 485508774 490666649 1386850179 485508775 38228166 330042974 395860700 969534090 969534089 32787661 395860451 1050289800#0 1050289800#1 1429576632 395860460#0 395860460#1 395860460#2 395860460#3 395860460#4 395860460#5 395860460#6 395860460#7 25026218#0 25026218#1 25026218#2 1299807441 227632108#0 227632108#1 227632108#2 227632108#3 227632108#4 485508783#1 398904778 1111814207 398904774 24049082#0 24049082#1 24049082#2 24049082#3 441782987#0 441782987#1 441782987#2 1294885852 39207106 441782986 1160946211 39207105#0 39207105#1 39207105#2 1160946210 1160946209 659994011 659994010 39180912#0 39180912#2 39180912#3 39180912#4 52118562#0 52118562#1 52118562#2 52118562#3 52118562#4 52118562#5 879793902 24623130 125064109 261657863 1448008505 261657864#0 261657864#1 137570976 1111810807#0 1111810807#1 1160946208 137570975 224011436 -28022225#6 -24690603"/>
    </vehicle>
    <vehicle id="11" depart="22.00">
        <route edges="-485575723#4 485575723#4 485575723#5 485575723#6 -1299807441 -25026218#2 -25026218#1 -25026218#0 -395860460#7 -395860460#6 -395860460#5 -395860460#4 -395860460#3 -395860460#2 -395860460#1 -395860460#0 -1429576632 -1050289800#1 -1050289800#0 395860466 969534093 969534092 969534094 969534091 969534090 395860449 -1410711263 -25026188#8"/>
    </vehicle>
    <vehicle id="12" depart="24.00">
        <route edges="-93799283#1 -93799283#0 -27073204#0 -485519606 -1428272978 35822234#0 35822234#1 -26782327#2 -26782327#1 -26782327#0 35822236 1185467047 50002640 208020577 548996313 208020575 30889500 30889502 317730270 1223052675 -5010183 -28022347 -953785917 -1223052677 -39199256 -39199255 -38228177 -1020392964 -1020392963 -953785918 -463315344 -38228176 -485508782 -953785919 -953785920 -485508789 -39184297#2 -39184297#1 -39184297#0 24786320#4 24786320#0 24786320#1 24786320#2 -39184305#7"/>
    </vehicle>
    <vehicle id="13" depart="26.00">
        <route edges="24618797#2 -24618797#2 -24618797#1 -24618797#0 -1423375757 -24618674 485508787 -26735814#1 -26735814#0 -229599380 -38379352#3 -38379352#2 -38379352#1 -38379352#0 -24691217 -367429062#1 -367429062#0 -24690788#3 -24690788#2 -24690788#1 -24690788#0 -1070423328#1 -1070423328#0 -26735809#1 -26735809#0 26735808 24618733 367429064#0 367429064#1 367429064#2 367429064#3 367429064#4 367429064#5 367429064#6 367429064#7 367429064#8 1387599233 52118562#0 52118562#1 52118562#2 52118562#3 52118562#4 52118562#5 879793902 24623130 125064109 261657863 1448008505 261657864#0 261657864#1 137570976 1111810807#0 1111810807#1 1160946208 137570975 224011436 1037783927 1160946207 367430267#0 367430267#1 32704334#0 32704334#1 32704334#2 41571244#0 41571244#1 41571244#2 41571244#3 484258601 34339226 137570978 728247204 496184290#0 496184290#1 41571495#0 41571495#1 41571495#2 86124303 1039915025 288305313 261109570 1086199222 -1086199222 -261109570"/>
    </vehicle>
    <vehicle id="14" depart="28.00">
        <route edges="-39333808#0 -39333808#1 -39181604 70534468#1 -39181603#0 24786320#1 -24786362#7 -24786362#6 -24786362#4 -24786362#3 -24786362#2 -24786362#1 -24786362#0 39184307 -1035028790#1 -1035028790#0 -1153435925#1 -1153435925#0 -1332872921#1 -1332872921#0 -50865801 -80716026#2 -80716026#1 -80716026#0 -1327085653 -1332870059 -1217281748 80716025 39622113 50002653 80715796 85613570 85613564 281817287 281817289 1005953433 29396460 172568458#0 -1035034527 -281817296 -281817294 -39928250 -39928251 -485508770 -1060254013"/>
    </vehicle>
    <vehicle id="15" depart="30.00">
        <route edges="1160946207 367430267#0 367430267#1 -367430267#1 -367430267#0 -1160946207 -1037783927 -224011436 -137570975 -1160946208 -1111810807#1 -1111810807#0 -137570976 -261657864#1 -261657864#0 -1448008505 -261657863 -125064109 -24623130 -879793902 -52118562#5 -52118562#4 -52118562#3 -52118562#2 -52118562#1 -52118562#0 -39180912#4 -39180912#3 -39180912#2 -39180912#0 -659994010 -659994011 -1160946209 -1160946210 -39207105#2 -39207105#1 -39207105#0 -1160946211 -441782986 -39207106 -1294885852 -441782987#2 -441782987#1 -441782987#0 -24049082#3 -24049082#2 -24049082#1 -24049082#0 398904775 1111814204 1111814205 1111814203#0 1111814203#1 398904779 -485508783#1 -227632108#4 -227632108#3 -227632108#2 -227632108#1 -227632108#0 -1299807441 -25026218#2 -25026218#1 -25026218#0 -395860460#7 -395860460#6 -395860460#5 -395860460#4 -395860460#3 -395860460#2 -395860460#1 -395860460#0 -1429576632 -1050289800#1 -1050289800#0 395860466 969534093 969534092 969534094 969534091 969534090 395860449 -1410711263 -39182648#7 -39182648#6 394354621#2 -39182648#4 39182648#4"/>
    </vehicle>
    <vehicle id="16" depart="32.00">
        <route edges="-50002649 50002649 5010180 30797111 953785922 953785921 1035034526 1035034524 1035034525 50002648#0 50002648#1 1035034523 1223052685 1035034522 1223052686 953785920 953785919 485508782 38228176 463315344 953785918 1020392963 1020392964 38228177 39199255 39199256 1223052677 953785917 28022347 5010183 -1223052675 -317730270 -1223052673 -1223052674 -208020609#1 -208020609#0 -208020612 -208020610#1 -208020610#0 -208020611 -1160941837#1 -1160941837#0 -28022398#1 -28022398#0 -1388622816#4 -1388622816#3 -1388622816#2 -1388622816#1 -1388622816#0 -49602185#4 -49602185#3 -49602185#2 -49602185#1 -49602185#0 -24908064#4 -24908064#3 53471068#0"/>
    </vehicle>
    <vehicle id="18" depart="36.00">
        <route edges="35818295#0 35818295#1 50865799#3 50865799#5 50865799#6 140042064#0 140042064#1 140042064#2 140042064#3 485508798#0 485508798#1 485508797#0 485508797#1 485508797#2 140042062#0 140042062#1 140042062#2 485508796 50865813 1035034520 1217281745 50865811 1217281747 -52118563 -29468750 -867812331 -1005953429 -1005953430 -867812330 50002649 5010180 30797111 953785922 953785921 1035034526 1035034524 1035034525 50002648#0 50002648#1 1035034523 1223052685 1035034522 1223052686 953785920 953785919 485508782 38228176 463315344 953785918 1020392963 1020392964 38228177 39199255 39199256 1223052677 953785917 28022347 5010183 -1223052675 1223052675 -5010183"/>
    </vehicle>
    <vehicle id="19" depart="38.00">
        <route edges="24622106#2 24622012#3 -52118562#3 -52118562#2 -52118562#1 -52118562#0 -39180912#4 -39180912#3 -39180912#2 -39180912#0 -659994010 -659994011 -1160946209 -1160946210 -39207105#2 -39207105#1 -39207105#0 -1160946211 -441782986 -39207106 -1294885852 -441782987#2 -441782987#1 -441782987#0 -24049082#3 -24049082#2 -24049082#1 -24049082#0 398904775 1111814204 398904776 24723838#0 24723838#1 24723838#2 32702545 1035028789 -1035028788 -39207665 -1035028787 -1035028786 -1389871995 -1389871994 1389871991#1 1389871991#2 -208020606#2 -208020606#1 -208020606#0 -208020604 -24054542#4 -24054542#3 -24054542#2 -24054542#1 -24054542#0 -1223052678 -1160941836 953785917 28022347 5010183 -1223052675 -317730270 -1223052673 -1223052674 -208020609#1 -208020609#0 -208020612 -208020610#1 -208020610#0 -208020611 -1160941837#1 -1160941837#0 -28022398#1 -28022398#0 -1388622816#4 -1388622816#3 -1388622816#2 1388622816#2"/>
    </vehicle>
    <vehicle id="20" depart="40.00">
        <route edges="35822237#0 35822237#1 -35822237#1 -35822237#0 35822236 1185467047 50002640 208020577 548996313 208020575 30889500 30889502 317730270 1223052675 -5010183 -28022347 -953785917 -1223052677 -39199256 -39199255 -38228177 -1020392964 -1020392963 -953785918 -39199226 39199227 31344451 485508792 485508791#0 485508791#1 485508791#2 -455255774 40931183#0 -190295818"/>
    </vehicle>
    <vehicle id="21" depart="42.00">
        <route edges="93799238 93799228 -93799228 -93799238 -93799261 -53471055 491809708#1 -1332927428 -1428272979 -53024265#2 -53024265#1 -53024265#0 -1332927429 26782324 -26146880#2 -26146880#1 -26146880#0 208020575 30889500 30889502 317730270 1223052675 -5010183 -28022347 -953785917 1160941836 1223052678 24054542#0 24054542#1 24054542#2 24054542#3 24054542#4 208020604 208020606#0 208020606#1 208020606#2 1389871991#3 1389871991#4 1389871991#5 1389871991#0 1389871994 1389871995 1035028786 1035028787 39207665 1035028788 -1035028789 -32702545 -24723838#2 -24723838#1 -24723838#0 398904777 1111814203#0 1111814203#1 1111814206 1111814207 398904774 24049082#0 24049082#1 24049082#2 24049082#3 441782987#0 441782987#1 441782987#2 1294885852 39207106 441782986 1160946211 39207105#0 39207105#1 39207105#2 1160946210 1160946209 659994011 659994010 39180912#0 39180912#2 39180912#3 39180912#4 -1387599233 -367429064#8 -367429064#7 -367429064#6 -367429064#5 -367429064#4 -367429064#3 -367429064#2 -367429064#1 -367429064#0 -24618733 1070423317 26735811 26735809#0 26735809#1 1070423328#0 1070423328#1 24690788#0 24690788#1 24690788#2 24690788#3 367429062#0 367429062#1 24691217 -367429060#3 -367429060#2 -367429060#1 -367429060#0 -38497082 -208020642#2 -208020642#1"/>
    </vehicle>
    <vehicle id="22" depart="44.00">
        <route edges="85613570 85613564 281817287 281817289 1005953433 -1005953433 -281817289 -281817287 -85613564 -85613570 -80715796 -50002653 -281817286 -52118563 -29468750 -867812331 -1005953429 -1005953430 -867812330 50002649 5010180 30797111 953785922 953785921 1035034526 1035034524 1035034525 50002648#0 50002648#1 1035034523 1223052685 1035034522 1223052686 953785920 953785919 485508782 38228176 463315344 -39199226 39199227 -463315345 -10597760 -641248007 -485508781 -485508780 -641248006 -39198302 -39198285#1 -39198285#0 -485508777 -39198284 -39198301#1 39198301#1"/>
    </vehicle>
    <vehicle id="23" depart="46.00">
        <route edges="-181275133#3 -181275133#2 -27255355#2 -27255355#1 -27255355#0 491914404#3 144080364#0 144080364#1 144080364#2 144080364#3 709362338#0 709362338#1 709362338#2 709015122#0 709015122#1 24908064#0 24908064#1 24908064#2 24908064#3 24908064#4 49602185#0 49602185#1 49602185#2 49602185#3 49602185#4 1388622816#0 1388622816#1 1388622816#2 1388622816#3 1388622816#4 28022398#0 28022398#1 1160941837#0 1160941837#1 208020611 208020610#0 208020610#1 208020612 208020609#0 208020609#1 1223052674 1223052673 317730270 1223052675 -5010183 -28022347 -953785917 1160941836 1223052678 24054542#0 24054542#1 24054542#2 24054542#3 24054542#4 208020604 208020606#0 208020606#1 208020606#2 1389871991#3 1389871991#4 1389871991#5 1389871991#0 1389871994 1389871995 1035028786 1035028787 39207665 1035028788 -1035028789 -32702545 -24723838#2 -24723838#1 -24723838#0 398904777 1111814203#0 1111814203#1 398904779 -485508783#1 -227632108#4 -227632108#3 -227632108#2 -227632108#1 -227632108#0 -1299807441 -25026218#2 -25026218#1 -25026218#0 140034334#0 39179163#0"/>
    </vehicle>
    <vehicle id="24" depart="48.00">
        <route edges="367429061#1 367429061#2 -367429061#2 -367429061#1 -367429061#0 -485508785#1 -485508785#0 -24634174 367429062#0 367429062#1 24691217 38379352#0 38379352#1 38379352#2 38379352#3 229599380 26735814#0 26735814#1 485508786 323794823 323794822 485508773#0 485508773#1 485508773#2 485508773#3 24786429#0 24786429#1 1448212777#0 1448212777#1 1448212777#2 1448212777#3 1448212777#4 1448212776#0 1448212776#1 39179172"/>
    </vehicle>
    <vehicle id="25" depart="50.00">
        <route edges="-26782318 -32702368 1223052674 1223052673 317730270 1223052675 -5010183 -28022347 -953785917 -1223052677 -39199256 -39199255 -38228177 -1020392964 -1020392963 -953785918 -39199226 39199227 31344451 485508792 485508791#0 485508791#1 485508791#2 229599384 -395860447#1 -395860447#0 -1050289801 395860457 969534094 395860462 -330042974 -38228166 -485508775 -1386850179 -490666649"/>
    </vehicle>
    <vehicle id="26" depart="52.00">
        <route edges="-39198238#2 -39198238#1 -39198238#0 485508779#0 485508779#1 39198248 485508780 485508781 641248007 10597760 463315345 31344451 485508792 485508791#0 485508791#1 485508791#2 229599384 -395860447#1 -395860447#0 -1050289801 395860457 969534094 969534091 969534090 395860449 -1410711263 -25026188#8 -25026188#7 -25026188#6 -25026188#5 -25026188#4 -25026188#3 -25026188#2 -25026188#1 -25026188#0 25026164#0 25026164#1 25026146#0 25026146#1 25026146#2 25026141 -485508773#0 -323794822 -323794823 -485508786 -26735814#1 24634338 70880587 1294885854 24634326"/>
    </vehicle>
    <vehicle id="27" depart="54.00">
        <route edges="1249489778#0 39181598 -24786362#4 -24786362#3 -24786362#2 -24786362#1 -24786362#0 39184307 485508774 490666649 1386850179 485508775 38228166 330042974 395860700 969534090 969534089 32787661 969534088 969534093 395860702 1050289801 395860447#0 395860447#1 -229599384 -485508791#2 -485508791#1 -485508791#0 -485508792 -31344451 -463315345 -10597760 -641248007 -485508781 -485508780 -641248006 -39198302 -39198285#1 -39198285#0 -485508777 -39198284 -39198301#1 39198301#1 39198284"/>
    </vehicle>
    <vehicle id="28" depart="56.00">
        <route edges="-367430267#1 -367430267#0 -1160946207 -1037783927 -224011436 -137570975 -1160946208 -1111810807#1 -1111810807#0 -137570976 -261657864#1 -261657864#0 -1448008505 -261657863 -125064109 -24623130 -879793902 -52118562#5 -52118562#4 -52118562#3 -52118562#2 -52118562#1 -52118562#0 -39180912#4 -39180912#3 -39180912#2 -39180912#0 -659994010 -659994011 -1160946209 -1160946210 -39207105#2 -39207105#1 -39207105#0 -1160946211 -441782986 -39207106 -1294885852 -441782987#2 -441782987#1 -441782987#0 -24049082#3 -24049082#2 -24049082#1 -24049082#0 398904775 1111814204 1111814205 1111814203#0 1111814203#1 398904779 -485508783#1 -227632108#4 -227632108#3 -227632108#2 -227632108#1 -227632108#0 -1299807441 -25026218#2 -25026218#1 -25026218#0 -395860460#7 -395860460#6 -395860460#5 -395860460#4 -395860460#3 -395860460#2 -395860460#1 -395860460#0 -1429576632 -1050289800#1 -1050289800#0 395860466 969534093 969534092 969534094 395860462 -330042974 -38228166 -485508775 -1386850179 -490666649 -485508774 -1035028790#1 -1035028790#0 -1153435925#1 -1153435925#0 -1332872921#1 -1332872921#0 -50865801 -80716026#2 -80716026#1 -80716026#0 -1327085653 -1332870059 -1217281748 -80715797 -39622112 -36799753 -202895447"/>
    </vehicle>
    <vehicle id="29" depart="58.00">
        <route edges="-392474781#3 -392474781#2 -392474781#1 -392474781#0 39184307 485508774 490666649 1386850179 485508775 38228166 330042974 395860700 969534090 969534089 32787661 395860451 1050289800#0 1050289800#1 1429576632 395860460#0 395860460#1 395860460#2 395860460#3 395860460#4 -395860460#4"/>
    </vehicle>
    <vehicle id="30" depart="60.00">
        <route edges="53024265#2 1428272979 1332927428 -1332927428 -1428272979 -53024265#2 -53024265#1 -53024265#0 -1332927429 26782324 -26146880#2 -26146880#1 -26146880#0 208020575 30889500 30889502 317730270 1223052675 -5010183 -28022347 -953785917 1160941836 1223052678 24054542#0 24054542#1 24054542#2 24054542#3 24054542#4 208020604 208020606#0 208020606#1 208020606#2 1389871991#3 1389871991#4 1389871991#5 1389871991#0 1389871991#1 -246684702#8 -246684702#7 -246684702#6 -246684702#5 -246684702#4 -246684702#3 -246684702#2 -246684702#1 246684702#1 246684702#2 246684702#3 246684702#4"/>
    </vehicle>
    <vehicle id="31" depart="62.00">
        <route edges="39184299#7 39184299#8 39184299#9 39184299#10 39184299#11 -1037717376#4 -1037717376#3 -1037717376#2 -1037717376#1 -1037717376#0 142203080 39184308#2 39184308#3 39184308#0 -392474781#4 -392474781#3 -392474781#2 -392474781#1 -392474781#0 39184307 485508774 490666649 1386850179 485508775 38228166 330042974 395860700 969534090 395860449 -1410711263 -25026188#8 -25026188#7 -25026188#6 -25026188#5 -25026188#4 -25026188#3 -25026188#2 -25026188#1 -25026188#0 25026164#0 25026164#1 25026146#0 25026146#1 25026146#2 25026141 -485508773#0 -323794822 -323794823 -485508786 -26735814#1 -26735814#0 -229599380 -38379352#3 -38379352#2 -38379352#1 -38379352#0 -24691217 -367429062#1 -367429062#0 -24690788#3 -24690788#2 -24690788#1 24690788#1 24690788#2"/>
    </vehicle>
    <vehicle id="32" depart="64.00">
        <route edges="406613067#0 406613067#1 406613067#2 -39179155#1 -39179155#0 485575723#6 -1299807441 -25026218#2 -25026218#1 -25026218#0 -395860460#7 -395860460#6 -395860460#5 -395860460#4 -395860460#3 -395860460#2 -395860460#1 -395860460#0 -1429576632 -1050289800#1 -1050289800#0 395860466 969534093 395860702 1050289801 395860447#0 395860447#1 -395860447#1 -395860447#0 -1050289801"/>
    </vehicle>
    <vehicle id="33" depart="66.00">
        <route edges="-1223052673 1223052673 317730270 1223052675 -5010183 -28022347 -953785917 -1223052677 -39199256 -39199255 -38228177 -1020392964 -1020392963 -953785918 -39199226 39199227 -463315345 -10597760 -641248007 -485508781 -485508780 -641248006 -39198302 -39198285#1 -39198285#0 39198285#0"/>
    </vehicle>
    <vehicle id="34" depart="68.00">
        <route edges="-93799283#1 -93799283#0 -27073204#0 -485519606 -1428272978 35822234#0 35822234#1 -26782327#2 -26782327#1 -26782327#0 35822236 1185467047 50002640 208020577 548996313 208020575 30889500 30889502 317730270 1223052675 -5010183 -28022347 -953785917 -1223052677 -39199256 -39199255 -38228177 -1020392964 -1020392963 -953785918 -39199226 39199227 -463315345 -10597760 -641248007 -485508781 -485508780 -641248006 -39198302 -39198285#1 -39198285#0 -485508777 -39198284 -39198301#1 -39198301#0 -24822803#7 -24822803#6 -24822803#5 -24822803#4 -24822803#3 -24822803#2 -24822803#1 -24822803#0 -1424636613#3 -1424636613#2 -1424636613#1 -1424636613#0 54731261#0 54731261#1 55356629#4 54731260#5"/>
    </vehicle>
    <vehicle id="35" depart="70.00">
        <route edges="-395860460#1 -395860460#0 -1429576632 -1050289800#1 -1050289800#0 395860466 969534093 395860702 1050289801 395860447#0 395860447#1 -229599384 -485508791#2 -485508791#1 -485508791#0 -485508792 -31344451 485508793 39199226 953785918 1020392963 1020392964 38228177 39199255 39199256 1223052677 953785917 28022347 5010183 -1223052675 -317730270 -1223052673 -1223052674 -208020609#1 -208020609#0 -208020612 -208020610#1 -208020610#0 -208020611 -1160941837#1 -1160941837#0 -28022398#1 -28022398#0 -1388622816#4 -1388622816#3 -1388622816#2 -1388622816#1 -1388622816#0 -49602185#4 -49602185#3 -49602185#2 -49602185#1 -49602185#0 -49602184#5 -49602184#4 -49602184#3 -49602184#2 -49602184#1 -49602184#0 -27074007#2 371282008 -53471072"/>
    </vehicle>
    <vehicle id="36" depart="72.00">
        <route edges="491809708#0 491809708#1 -1332927428 -1428272979 -53024265#2 -53024265#1 -53024265#0 -1332927429 26782324 -26146880#2 -26146880#1 -26146880#0 208020575 30889500 30889502 317730270 1223052675 -5010183 -28022347 -953785917 -1223052677 -39199256 -39199255 -38228177 -1020392964 -1020392963 -953785918 -463315344 -38228176 -485508782 -953785919 -953785920 -485508789 -39184297#2 -39184297#1 -39184297#0 24786320#4 24786320#0 24786320#1 -24786362#7 39181595#0 39181600#0"/>
    </vehicle>
    <vehicle id="37" depart="74.00">
        <route edges="35818258#2 -35818258#2 -35818258#1 -35818258#0 35818261#6 485508796 50865813 1035034520 1217281745 202895448 202895447 36799753 39622112 80715797 1217281748 1332870059 1327085653 80716026#0 80716026#1 80716026#2 50865801 1332872921#0 1332872921#1 1153435925#0 1153435925#1 1035028790#0 1035028790#1 485508774 490666649 1386850179 485508775 38228166 330042974 395860700 969534090 969534089 32787661 395860451 1050289800#0 1050289800#1 1429576632 395860460#0 395860460#1 395860460#2 395860460#3 395860460#4 395860460#5 395860460#6 395860460#7 25026218#0 25026218#1 25026218#2 1299807441 227632108#0 227632108#1 227632108#2 227632108#3 227632108#4 485508783#1 398904778 1111814207 398904774 24049082#0 24049082#1 24049082#2 24049082#3 441782987#0 441782987#1 441782987#2 1294885852 39207106 441782986 1160946211 39207105#0 39207105#1 39207105#2 1160946210 1160946209 659994011 659994010 39180912#0 39180912#2 39180912#3 39180912#4 52118562#0 52118562#1 52118562#2 52118562#3 52118562#4 52118562#5 879793902 24623130 125064109 24622042#0 24622042#1 126186497"/>
    </vehicle>
    <vehicle id="38" depart="76.00">