<?xml version="1.0" encoding="UTF-8"?>
<!-- generated on 2025-12-16 14:44:22.823241 by randomTrips.py v1_5_0+0000-3a3be608d2
  options: -n neustadt.net.xml -r neustadt.trips.xml -e 3600 -p 2
-->
<routes xmlns:xsi="http://www.w3.org/2001/XMLSchema-instance" xsi:noNamespaceSchemaLocation="http://sumo.dlr.de/xsd/routes_file.xsd">
    <trip id="0" depart="0.00" from="-35818297#0" to="438233142"/>
    <trip id="1" depart="2.00" from="35818290#1" to="39333808#0"/>
    <trip id="2" depart="4.00" from="-281817291#0" to="-33083171#1"/>
    <trip id="3" depart="6.00" from="571034480#0" to="-1185467047"/>
    <trip id="4" depart="8.00" from="539224396#1" to="25026218#2"/>
    <trip id="5" depart="10.00" from="-41571505#0" to="24049082#3"/>
    <trip id="6" depart="12.00" from="125063601#0" to="-208020575"/>
    <trip id="7" depart="14.00" from="52118562#0" to="-39179178#5"/>
    <trip id="8" depart="16.00" from="36523533#3" to="-186786343#0"/>
    <trip id="9" depart="18.00" from="-77412314#1" to="27255283#2"/>
    <trip id="10" depart="20.00" from="-35818272" to="-24690603"/>
    <trip id="11" depart="22.00" from="-485575723#4" to="-25026188#8"/>
    <trip id="12" depart="24.00" from="-93799283#1" to="-39184305#7"/>
    <trip id="13" depart="26.00" from="24618797#2" to="-261109570"/>
    <trip id="14" depart="28.00" from="-39333808#0" to="-1060254013"/>
    <trip id="15" depart="30.00" from="1160946207" to="39182648#4"/>
    <trip id="16" depart="32.00" from="-50002649" to="53471068#0"/>
    <trip id="17" depart="34.00" from="-1035028786" to="1366024875"/>
    <trip id="18" depart="36.00" from="35818295#0" to="-5010183"/>
    <trip id="19" depart="38.00" from="24622106#2" to="1388622816#2"/>
    <trip id="20" depart="40.00" from="35822237#0" to="-190295818"/>
    <trip id="21" depart="42.00" from="93799238" to="-208020642#1"/>
    <trip id="22" depart="44.00" from="85613570" to="39198301#1"/>
    <trip id="23" depart="46.00" from="-181275133#3" to="39179163#0"/>
    <trip id="24" depart="48.00" from="367429061#1" to="39179172"/>
    <trip id="25" depart="50.00" from="-26782318" to="-490666649"/>
    <trip id="26" depart="52.00" from="-39198238#2" to="24634326"/>
    <trip id="27" depart="54.00" from="1249489778#0" to="39198284"/>
    <trip id="28" depart="56.00" from="-367430267#1" to="-202895447"/>
    <trip id="29" depart="58.00" from="-392474781#3" to="-395860460#4"/>
    <trip id="30" depart="60.00" from="53024265#2" to="246684702#4"/>
    <trip id="31" depart="62.00" from="39184299#7" to="24690788#2"/>
    <trip id="32" depart="64.00" from="406613067#0" to="-1050289801"/>
    <trip id="33" depart="66.00" from="-1223052673" to="39198285#0"/>
    <trip id="34" depart="68.00" from="-93799283#1" to="54731260#5"/>
    <trip id="35" depart="70.00" from="-395860460#1" to="-53471072"/>
    <trip id="36" depart="72.00" from="491809708#0" to="39181600#0"/>
    <trip id="37" depart="74.00" from="35818258#2" to="126186497"/>
    <trip id="38" depart="76.00" from="24690612#2" to="-709015122#0"/>
    <trip id="39" depart="78.00" from="81030468#0" to="-163934874#0"/>
    <trip id="40" depart="80.00" from="36523530#1" to="-35822234#0"/>
    <trip id="41" depart="82.00" from="39181607" to="-25026184#1"/>
    <trip id="42" depart="84.00" from="-53873343" to="24672660#1"/>
    <trip id="43" depart="86.00" from="-208020606#0" to="-55356629#2"/>
    <trip id="44" depart="88.00" from="-229599374" to="953785920"/>
    <trip id="45" depart="90.00" from="-27255373" to="55356625#1"/>
    <trip id="46" depart="92.00" from="-102597709" to="-1447507826"/>
    <trip id="47" depart="94.00" from="-53471033" to="28022225#5"/>
    <trip id="48" depart="96.00" from="491914404#0" to="-53471065#2"/>
    <trip id="49" depart="98.00" from="-74384959#1" to="-89366894"/>
    <trip id="50" depart="100.00" from="-485508785#1" to="-25026216#0"/>
    <trip id="51" depart="102.00" from="-246684702#4" to="1070423317"/>
    <trip id="52" depart="104.00" from="80715797" to="640236933#0"/>
    <trip id="53" depart="106.00" from="24621756#2" to="640236940"/>
    <trip id="54" depart="108.00" from="1037717376#7" to="-55356623#2"/>
    <trip id="55" depart="110.00" from="961410940" to="485508773#2"/>
    <trip id="56" depart="112.00" from="53471087#1" to="-35818285#4"/>
    <trip id="57" depart="114.00" from="-1327085653" to="24621765"/>
    <trip id="58" depart="116.00" from="140042058#1" to="-39198296"/>
    <trip id="59" depart="118.00" from="-1050289802#0" to="-86124310"/>
    <trip id="60" depart="120.00" from="709016500" to="227632108#4"/>
    <trip id="61" depart="122.00" from="80716026#1" to="-1056390818"/>
    <trip id="62" depart="124.00" from="1363278449" to="-39503597"/>
    <trip id="63" depart="126.00" from="-35818272" to="491914404#1"/>
    <trip id="64" depart="128.00" from="-50865799#6" to="-50865809#1"/>
    <trip id="65" depart="130.00" from="41571244#1" to="-39181592#1"/>
    <trip id="66" depart="132.00" from="-140292720#1" to="5010180"/>
    <trip id="67" depart="134.00" from="26735814#0" to="-54731260#5"/>
    <trip id="68" depart="136.00" from="-27073204#0" to="-41084690#0"/>
    <trip id="69" depart="138.00" from="-392474779#5" to="-1037717376#0"/>
    <trip id="70" depart="140.00" from="39181599" to="39179174#2"/>
    <trip id="71" depart="142.00" from="485508780" to="54731261#0"/>
    <trip id="72" depart="144.00" from="-25026188#3" to="39179156#0"/>
    <trip id="73" depart="146.00" from="37330519" to="-41453342#1"/>
    <trip id="74" depart="148.00" from="1294885854" to="-24786362#2"/>
    <trip id="75" depart="150.00" from="-246684702#2" to="-35818278#0"/>
    <trip id="76" depart="152.00" from="-39179199#2" to="-137570975"/>
    <trip id="77" depart="154.00" from="-39184313#0" to="39622117#2"/>
    <trip id="78" depart="156.00" from="29468751" to="-39198287"/>
    <trip id="79" depart="158.00" from="53471086#0" to="-24621821#0"/>
    <trip id="80" depart="160.00" from="-548996313" to="-53471069#1"/>
    <trip id="81" depart="162.00" from="-496184290#1" to="868143415#6"/>
    <trip id="82" depart="164.00" from="898577637" to="-24723838#0"/>
    <trip id="83" depart="166.00" from="367429064#6" to="53471065#4"/>
    <trip id="84" depart="168.00" from="1005953434" to="-1037717376#2"/>
    <trip id="85" depart="170.00" from="1271274190#1" to="-39184314#1"/>
    <trip id="86" depart="172.00" from="53471081#1" to="-36523533#3"/>
    <trip id="87" depart="174.00" from="-463315344" to="-367429064#3"/>
    <trip id="88" depart="176.00" from="-246684702#1" to="227632108#3"/>
    <trip id="89" depart="178.00" from="39503608" to="140291561#3"/>
    <trip id="90" depart="180.00" from="-491809708#1" to="24622012#3"/>
    <trip id="91" depart="182.00" from="208020611" to="-55356620#1"/>
    <trip id="92" depart="184.00" from="-50865799#6" to="-39184309#1"/>
    <trip id="93" depart="186.00" from="227632108#2" to="392474781#1"/>
    <trip id="94" depart="188.00" from="1276794245" to="37330519"/>
    <trip id="95" depart="190.00" from="35818278#0" to="953785921"/>
    <trip id="96" depart="192.00" from="36523544#9" to="53471065#1"/>
    <trip id="97" depart="194.00" from="35818278#4" to="-271102867#1"/>
    <trip id="98" depart="196.00" from="39181748" to="869747869#0"/>
    <trip id="99" depart="198.00" from="40931176" to="-144080364#0"/>
    <trip id="100" depart="200.00" from="-131335783#0" to="-898577637"/>
    <trip id="101" depart="202.00" from="-24644732#2" to="-35818296"/>
    <trip id="102" depart="204.00" from="137570990#0" to="42678123#3"/>
    <trip id="103" depart="206.00" from="709362340#2" to="246684702#4"/>
    <trip id="104" depart="208.00" from="-39184305#0" to="-24672660#1"/>
    <trip id="105" depart="210.00" from="39315373" to="485508793"/>
    <trip id="106" depart="212.00" from="-24723838#0" to="80707194"/>
    <trip id="107" depart="214.00" from="-24786223#1" to="485508787"/>
    <trip id="108" depart="216.00" from="24622162" to="-39184299#3"/>
    <trip id="109" depart="218.00" from="-367429064#6" to="5010180"/>
    <trip id="110" depart="220.00" from="24634224#0" to="39184306#1"/>
    <trip id="111" depart="222.00" from="137570977" to="83569059#0"/>
    <trip id="112" depart="224.00" from="-39198270#1" to="229599366"/>
    <trip id="113" depart="226.00" from="-485508785#0" to="36523544#6"/>
    <trip id="114" depart="228.00" from="-438204634" to="-39503597"/>
    <trip id="115" depart="230.00" from="50865799#1" to="-1366567004#1"/>
    <trip id="116" depart="232.00" from="-39198254" to="-246684702#3"/>
    <trip id="117" depart="234.00" from="-867812331" to="1386850179"/>
    <trip id="118" depart="236.00" from="485508771#0" to="93661257"/>
    <trip id="119" depart="238.00" from="-485575723#1" to="189272417#1"/>
    <trip id="120" depart="240.00" from="-1037783927" to="1434139140"/>
    <trip id="121" depart="242.00" from="-39179173#4" to="-438204634"/>
    <trip id="122" depart="244.00" from="-38379352#2" to="1271274190#1"/>
    <trip id="123" depart="246.00" from="-1389871994" to="-24672460#3"/>
    <trip id="124" depart="248.00" from="-39198247#3" to="-24672447#2"/>
    <trip id="125" depart="250.00" from="-52118562#0" to="24618687#0"/>
    <trip id="126" depart="252.00" from="-42678123#4" to="208020610#1"/>
    <trip id="127" depart="254.00" from="27255283#2" to="24672671#4"/>
    <trip id="128" depart="256.00" from="-1429576632" to="59039473#0"/>
    <trip id="129" depart="258.00" from="-53471065#4" to="1389871991#3"/>
    <trip id="130" depart="260.00" from="-974099555#1" to="1434139140"/>
    <trip id="131" depart="262.00" from="-55356630" to="-39179174#3"/>
    <trip id="132" depart="264.00" from="-869747902#12" to="84585952#1"/>
    <trip id="133" depart="266.00" from="1160946209" to="-181275129#3"/>
    <trip id="134" depart="268.00" from="54753868#4" to="-39333808#1"/>
    <trip id="135" depart="270.00" from="1366024873#13" to="869747902#5"/>
    <trip id="136" depart="272.00" from="398904777" to="-24908064#3"/>
    <trip id="137" depart="274.00" from="-39198267#0" to="39198267#0"/>
    <trip id="138" depart="276.00" from="-140292719" to="1363278450"/>
    <trip id="139" depart="278.00" from="-39181597" to="367429056"/>
    <trip id="140" depart="280.00" from="24622106#0" to="-32787593#1"/>
    <trip id="141" depart="282.00" from="1037717376#9" to="1037717376#7"/>
    <trip id="142" depart="284.00" from="39198249#2" to="-140291561#3"/>
    <trip id="143" depart="286.00" from="-39180912#4" to="24618744"/>
    <trip id="144" depart="288.00" from="969534088" to="485508785#0"/>
    <trip id="145" depart="290.00" from="-39503597" to="24672493#2"/>
    <trip id="146" depart="292.00" from="-437669864#2" to="-39181598"/>
    <trip id="147" depart="294.00" from="217745994#0" to="-1037717375#1"/>
    <trip id="148" depart="296.00" from="126175881" to="-181275133#5"/>
    <trip id="149" depart="298.00" from="39179196" to="38497082"/>
    <trip id="150" depart="300.00" from="39199226" to="776830638"/>
    <trip id="151" depart="302.00" from="27255364#5" to="709015121#2"/>
    <trip id="152" depart="304.00" from="39179160" to="24622042#0"/>
    <trip id="153" depart="306.00" from="-36523535#2" to="-1419222465"/>
    <trip id="154" depart="308.00" from="-39186641#6" to="-38227734#3"/>
    <trip id="155" depart="310.00" from="-35818285#3" to="-39186628#1"/>
    <trip id="156" depart="312.00" from="-39198250#0" to="-35818289#0"/>
    <trip id="157" depart="314.00" from="-39503599#1" to="107602690#0"/>
    <trip id="158" depart="316.00" from="40931176" to="-24634224#0"/>
    <trip id="159" depart="318.00" from="-1060254013" to="-440356609"/>
    <trip id="160" depart="320.00" from="32535588#1" to="485575723#2"/>
    <trip id="161" depart="322.00" from="-36523534#1" to="24644791#1"/>
    <trip id="162" depart="324.00" from="1448212777#2" to="-485508770"/>
    <trip id="163" depart="326.00" from="-140291561#3" to="728247204"/>
    <trip id="164" depart="328.00" from="38379352#0" to="1299807441"/>
    <trip id="165" depart="330.00" from="1020392964" to="-31671827#0"/>
    <trip id="166" depart="332.00" from="-151167736" to="1448212776#2"/>
    <trip id="167" depart="334.00" from="-24644597#1" to="-144080372#0"/>
    <trip id="168" depart="336.00" from="-54753868#4" to="126175900#1"/>
    <trip id="169" depart="338.00" from="25026206" to="-41571495#2"/>
    <trip id="170" depart="340.00" from="-39184297#1" to="-140291561#1"/>
    <trip id="171" depart="342.00" from="485508797#0" to="-39184315"/>
    <trip id="172" depart="344.00" from="-80716026#1" to="39184300"/>
    <trip id="173" depart="346.00" from="-39184315" to="868143415#0"/>
    <trip id="174" depart="348.00" from="1014378622" to="59039473#2"/>
    <trip id="175" depart="350.00" from="-438384275" to="39186641#0"/>
    <trip id="176" depart="352.00" from="39184299#0" to="-1385660314#2"/>
    <trip id="177" depart="354.00" from="1111814203#0" to="-709015121#1"/>
    <trip id="178" depart="356.00" from="-39199240" to="-55356630"/>
    <trip id="179" depart="358.00" from="-24786243#3" to="181275129#1"/>
    <trip id="180" depart="360.00" from="-367429064#4" to="39186630"/>
    <trip id="181" depart="362.00" from="39181603#1" to="25026188#6"/>
    <trip id="182" depart="364.00" from="-53024265#0" to="-869747902#11"/>
    <trip id="183" depart="366.00" from="24672493#0" to="-24690612#2"/>
    <trip id="184" depart="368.00" from="39201213#1" to="367429061#1"/>
    <trip id="185" depart="370.00" from="-39186642" to="-367429054#1"/>
    <trip id="186" depart="372.00" from="39186625#0" to="-485519607"/>
    <trip id="187" depart="374.00" from="-39198250#2" to="53471033"/>
    <trip id="188" depart="376.00" from="55356620#0" to="39182648#4"/>
    <trip id="189" depart="378.00" from="-39181748" to="-39198286"/>
    <trip id="190" depart="380.00" from="31671827#1" to="39198238#3"/>
    <trip id="191" depart="382.00" from="49602184#0" to="38379352#3"/>
    <trip id="192" depart="384.00" from="438311318#0" to="31344451"/>
    <trip id="193" depart="386.00" from="-1035034526" to="1448212776#2"/>
    <trip id="194" depart="388.00" from="367429064#5" to="25026146#0"/>
    <trip id="195" depart="390.00" from="35818277#0" to="25859623"/>
    <trip id="196" depart="392.00" from="-227632110#1" to="1366567004#2"/>
    <trip id="197" depart="394.00" from="367429064#3" to="26735809#0"/>
    <trip id="198" depart="396.00" from="485508775" to="-39181596#2"/>
    <trip id="199" depart="398.00" from="-39181603#1" to="-39622118#0"/>
    <trip id="200" depart="400.00" from="-1005953431" to="-39180771#0"/>
    <trip id="201" depart="402.00" from="-1035028790#1" to="-102597702"/>
    <trip id="202" depart="404.00" from="24622042#1" to="70880587"/>
    <trip id="203" depart="406.00" from="-25026141" to="1086199222"/>
    <trip id="204" depart="408.00" from="-36523534#1" to="-39208742"/>
    <trip id="205" depart="410.00" from="39181593#1" to="101835943#3"/>
    <trip id="206" depart="412.00" from="-49602185#1" to="395860460#2"/>
    <trip id="207" depart="414.00" from="-1039915025" to="-39184299#1"/>
    <trip id="208" depart="416.00" from="39198242" to="-25026141"/>
    <trip id="209" depart="418.00" from="39186641#5" to="39198242"/>
    <trip id="210" depart="420.00" from="39503596#0" to="490548753"/>
    <trip id="211" depart="422.00" from="-93661235#1" to="-107602692#0"/>
    <trip id="212" depart="424.00" from="151167736" to="-101835943#3"/>
    <trip id="213" depart="426.00" from="-1430647769" to="-28022398#1"/>
    <trip id="214" depart="428.00" from="-1425386356" to="-30797065"/>
    <trip id="215" depart="430.00" from="-659994011" to="395860460#2"/>
    <trip id="216" depart="432.00" from="-24908064#2" to="-27073204#1"/>
    <trip id="217" depart="434.00" from="140292718#0" to="406613067#1"/>
    <trip id="218" depart="436.00" from="-35818269#1" to="30797065"/>
    <trip id="219" depart="438.00" from="-26782327#0" to="39179173#2"/>
    <trip id="220" depart="440.00" from="39622113" to="93661266"/>
    <trip id="221" depart="442.00" from="1366024873#0" to="227632110#5"/>
    <trip id="222" depart="444.00" from="25026194" to="-438384276"/>
    <trip id="223" depart="446.00" from="-24644717#1" to="49602184#4"/>
    <trip id="224" depart="448.00" from="39198297#0" to="-140034334#1"/>
    <trip id="225" depart="450.00" from="35818275#0" to="-25026217#2"/>
    <trip id="226" depart="452.00" from="-1223052678" to="163934874#3"/>
    <trip id="227" depart="454.00" from="-953785919" to="39645538#0"/>
    <trip id="228" depart="456.00" from="53471065#4" to="39184299#7"/>
    <trip id="229" depart="458.00" from="-35818296" to="38379352#2"/>
    <trip id="230" depart="460.00" from="27255368" to="-55356630"/>
    <trip id="231" depart="462.00" from="-39198276" to="39181604"/>
    <trip id="232" depart="464.00" from="-1111810806" to="24622162"/>
    <trip id="233" depart="466.00" from="39179160" to="1366024873#2"/>
    <trip id="234" depart="468.00" from="485508780" to="-25026191#2"/>
    <trip id="235" depart="470.00" from="-35818278#3" to="1037717376#3"/>
    <trip id="236" depart="472.00" from="42678123#3" to="137570977"/>
    <trip id="237" depart="474.00" from="-869747902#11" to="25026060#3"/>
    <trip id="238" depart="476.00" from="53471068#0" to="39198296"/>
    <trip id="239" depart="478.00" from="36523544#7" to="36523532"/>
    <trip id="240" depart="480.00" from="-367429054#0" to="392474780"/>
    <trip id="241" depart="482.00" from="24054542#2" to="-107602690#3"/>
    <trip id="242" depart="484.00" from="39207895#3" to="39186644"/>
    <trip id="243" depart="486.00" from="-84679439#0" to="-39646525#0"/>
    <trip id="244" depart="488.00" from="137570990#1" to="-208020606#0"/>
    <trip id="245" depart="490.00" from="-281817285" to="288306010#0"/>
    <trip id="246" depart="492.00" from="-39315373" to="-54731260#5"/>
    <trip id="247" depart="494.00" from="24690788#2" to="35818275#0"/>
    <trip id="248" depart="496.00" from="24621756#4" to="485508779#0"/>
    <trip id="249" depart="498.00" from="-39179158#0" to="33083171#1"/>
    <trip id="250" depart="500.00" from="294940115#0" to="39503599#1"/>
    <trip id="251" depart="502.00" from="35818285#2" to="39179178#3"/>
    <trip id="252" depart="504.00" from="-438204633" to="-24690603"/>
    <trip id="253" depart="506.00" from="-395860460#2" to="39198268"/>
    <trip id="254" depart="508.00" from="-24786223#1" to="39645538#0"/>
    <trip id="255" depart="510.00" from="26735808" to="35818271#0"/>
    <trip id="256" depart="512.00" from="696172430#0" to="39184297#1"/>
    <trip id="257" depart="514.00" from="271102866" to="-24674275"/>
    <trip id="258" depart="516.00" from="53471065#0" to="55356628#0"/>
    <trip id="259" depart="518.00" from="-25859621#1" to="-438384272"/>
    <trip id="260" depart="520.00" from="-438311318#1" to="392474779#3"/>
    <trip id="261" depart="522.00" from="50865813" to="367973077"/>
    <trip id="262" depart="524.00" from="53024265#0" to="39182648#5"/>
    <trip id="263" depart="526.00" from="-24672460#2" to="35818290#1"/>
    <trip id="264" depart="528.00" from="-26782327#1" to="39181541#2"/>
    <trip id="265" depart="530.00" from="39179196" to="93661241#2"/>
    <trip id="266" depart="532.00" from="-54731261#4" to="-25026188#4"/>
    <trip id="267" depart="534.00" from="1423375757" to="-35818289#1"/>
    <trip id="268" depart="536.00" from="-208020612" to="-39207895#0"/>
    <trip id="269" depart="538.00" from="-39207895#2" to="-35818258#2"/>
    <trip id="270" depart="540.00" from="31671824" to="24634326"/>
    <trip id="271" depart="542.00" from="-24672600#0" to="491809708#0"/>
    <trip id="272" depart="544.00" from="30797093" to="53471085"/>
    <trip id="273" depart="546.00" from="39622117#4" to="-53471074#0"/>
    <trip id="274" depart="548.00" from="93661241#0" to="367429060#2"/>
    <trip id="275" depart="550.00" from="144080364#3" to="24672447#2"/>
    <trip id="276" depart="552.00" from="89366894" to="39201213#1"/>
    <trip id="277" depart="554.00" from="1385660313" to="869747869#0"/>
    <trip id="278" depart="556.00" from="-39181541#0" to="-39622118#0"/>
    <trip id="279" depart="558.00" from="39198258#0" to="-35818275#2"/>
    <trip id="280" depart="560.00" from="912957886#0" to="-101835943#3"/>
    <trip id="281" depart="562.00" from="25026060#0" to="485575723#4"/>
    <trip id="282" depart="564.00" from="-1160941837#0" to="39186641#6"/>
    <trip id="283" depart="566.00" from="-131335783#4" to="-24621784#1"/>
    <trip id="284" depart="568.00" from="36524887#3" to="-39179199#9"/>
    <trip id="285" depart="570.00" from="24672460#4" to="-107602690#1"/>
    <trip id="286" depart="572.00" from="364033744" to="53471071"/>
    <trip id="287" depart="574.00" from="-35818261#2" to="-26839280"/>
    <trip id="288" depart="576.00" from="367429064#1" to="-25859621#1"/>
    <trip id="289" depart="578.00" from="869747902#2" to="-36523544#1"/>
    <trip id="290" depart="580.00" from="-39333808#0" to="39181600#2"/>
    <trip id="291" depart="582.00" from="-24054542#0" to="-24618667"/>
    <trip id="292" depart="584.00" from="355497372" to="869747902#0"/>
    <trip id="293" depart="586.00" from="-53471074#1" to="-1366567005"/>
    <trip id="294" depart="588.00" from="27255364#4" to="-26735804#0"/>
    <trip id="295" depart="590.00" from="24054542#3" to="24690609#1"/>
    <trip id="296" depart="592.00" from="-163934874#2" to="-55356630"/>
    <trip id="297" depart="594.00" from="-39198237" to="294940115#0"/>
    <trip id="298" depart="596.00" from="-24822803#5" to="-52118562#4"/>
    <trip id="299" depart="598.00" from="-1160946209" to="490666650"/>
    <trip id="300" depart="600.00" from="281817284" to="1223052674"/>
    <trip id="301" depart="602.00" from="40931171" to="485575723#2"/>
    <trip id="302" depart="604.00" from="-1153435925#0" to="-42678123#1"/>
    <trip id="303" depart="606.00" from="31671830#0" to="-36523532"/>
    <trip id="304" depart="608.00" from="-227632110#2" to="367783860#0"/>
    <trip id="305" depart="610.00" from="395860447#0" to="1153435925#1"/>
    <trip id="306" depart="612.00" from="53471076#0" to="102221405#3"/>
    <trip id="307" depart="614.00" from="869747869#1" to="54731261#2"/>
    <trip id="308" depart="616.00" from="1363363474#1" to="39198276"/>
    <trip id="309" depart="618.00" from="-1217281745" to="-1419222465"/>
    <trip id="310" depart="620.00" from="-35818285#2" to="-317730270"/>
    <trip id="311" depart="622.00" from="-53471074#1" to="35818285#3"/>
    <trip id="312" depart="624.00" from="-24672652#3" to="39928255"/>
    <trip id="313" depart="626.00" from="-1160946209" to="-24634224#1"/>
    <trip id="314" depart="628.00" from="-36523530#0" to="24786362#2"/>
    <trip id="315" depart="630.00" from="-1066030683#1" to="24908064#1"/>
    <trip id="316" depart="632.00" from="-1385660314#1" to="208020609#1"/>
    <trip id="317" depart="634.00" from="-39186629" to="-709015121#2"/>
    <trip id="318" depart="636.00" from="-24672448" to="25026184#2"/>
    <trip id="319" depart="638.00" from="-25026216#1" to="-107602690#0"/>
    <trip id="320" depart="640.00" from="-869747902#11" to="709362339#0"/>
    <trip id="321" depart="642.00" from="39181600#3" to="-1037717376#0"/>
    <trip id="322" depart="644.00" from="-395860460#7" to="-39179178#6"/>
    <trip id="323" depart="646.00" from="485508797#0" to="-24621756#1"/>
    <trip id="324" depart="648.00" from="-288305314" to="39181608#1"/>
    <trip id="325" depart="650.00" from="101835943#1" to="-1037717376#6"/>
    <trip id="326" depart="652.00" from="-181275129#3" to="-140034334#2"/>
    <trip id="327" depart="654.00" from="-53471054" to="-93799261"/>
    <trip id="328" depart="656.00" from="-39179173#4" to="24690788#2"/>
    <trip id="329" depart="658.00" from="25026036" to="28022398#1"/>
    <trip id="330" depart="660.00" from="-485508773#2" to="-25026188#0"/>
    <trip id="331" depart="662.00" from="-1419222466" to="-438384272"/>
    <trip id="332" depart="664.00" from="-39179178#6" to="-1086199222"/>
    <trip id="333" depart="666.00" from="186786344#0" to="-53471086#1"/>
    <trip id="334" depart="668.00" from="-24621756#1" to="1429576633"/>
    <trip id="335" depart="670.00" from="367429056" to="-367429064#0"/>
    <trip id="336" depart="672.00" from="-709015121#2" to="126187278"/>
    <trip id="337" depart="674.00" from="-31344451" to="59039478#0"/>
    <trip id="338" depart="676.00" from="27255283#1" to="-953785921"/>
    <trip id="339" depart="678.00" from="144080364#0" to="-39622118#1"/>
    <trip id="340" depart="680.00" from="53471072" to="89366942"/>
    <trip id="341" depart="682.00" from="-39181541#1" to="35818277#0"/>
    <trip id="342" depart="684.00" from="-38227734#4" to="32535588#0"/>
    <trip id="343" depart="686.00" from="1294885852" to="-696172429#4"/>
    <trip id="344" depart="688.00" from="-36523544#1" to="39503598#1"/>
    <trip id="345" depart="690.00" from="-53471069#1" to="-102597688#0"/>
    <trip id="346" depart="692.00" from="-98947039" to="39186641#4"/>
    <trip id="347" depart="694.00" from="24672447#1" to="696172430#2"/>
    <trip id="348" depart="696.00" from="1035028790#0" to="101835943#6"/>
    <trip id="349" depart="698.00" from="-107602692#1" to="490666650"/>
    <trip id="350" depart="700.00" from="1014378621" to="24672479#0"/>
    <trip id="351" depart="702.00" from="33083171#0" to="53471081#1"/>
    <trip id="352" depart="704.00" from="-1296734332" to="-41571495#1"/>
    <trip id="353" depart="706.00" from="-35822234#1" to="-490666649"/>
    <trip id="354" depart="708.00" from="-709015121#2" to="-25026198"/>
    <trip id="355" depart="710.00" from="39198238#3" to="-485508775"/>
    <trip id="356" depart="712.00" from="140034334#2" to="-36523536#0"/>
    <trip id="357" depart="714.00" from="-54753868#0" to="-869747902#12"/>
    <trip id="358" depart="716.00" from="955116893" to="28022225#4"/>
    <trip id="359" depart="718.00" from="-39184299#9" to="181275129#5"/>
    <trip id="360" depart="720.00" from="39198247#0" to="35818274"/>
    <trip id="361" depart="722.00" from="395860447#0" to="80707190"/>
    <trip id="362" depart="724.00" from="39198242" to="-208020602"/>
    <trip id="363" depart="726.00" from="24644717#0" to="-208020606#1"/>
    <trip id="364" depart="728.00" from="-208020642#1" to="-24786223#2"/>
    <trip id="365" depart="730.00" from="131335783#0" to="24634326"/>
    <trip id="366" depart="732.00" from="39207242#0" to="-488544400"/>
    <trip id="367" depart="734.00" from="-25858951#0" to="438204633"/>
    <trip id="368" depart="736.00" from="39181600#0" to="-261109570"/>
    <trip id="369" depart="738.00" from="-101835915" to="-1035034522"/>
    <trip id="370" depart="740.00" from="36523535#0" to="294940115#0"/>
    <trip id="371" depart="742.00" from="-1037717375#0" to="163934874#2"/>
    <trip id="372" depart="744.00" from="25026188#0" to="1423386471"/>
    <trip id="373" depart="746.00" from="-97097549" to="24622012#2"/>
    <trip id="374" depart="748.00" from="491809708#1" to="24622115#0"/>
    <trip id="375" depart="750.00" from="-24621821#2" to="39199256"/>
    <trip id="376" depart="752.00" from="-36523532" to="101835943#5"/>
    <trip id="377" depart="754.00" from="55356623#0" to="27073204#0"/>
    <trip id="378" depart="756.00" from="140042059#0" to="38227636"/>
    <trip id="379" depart="758.00" from="-1423094269" to="-395860460#5"/>
    <trip id="380" depart="760.00" from="-140042064#0" to="39622118#1"/>
    <trip id="381" depart="762.00" from="208020577" to="54753868#0"/>
    <trip id="382" depart="764.00" from="39184313#3" to="-27255364#4"/>
    <trip id="383" depart="766.00" from="181275129#1" to="41571495#0"/>
    <trip id="384" depart="768.00" from="53471087#2" to="5010183"/>
    <trip id="385" depart="770.00" from="1035028790#0" to="-24672652#3"/>
    <trip id="386" depart="772.00" from="50865799#5" to="-80716026#1"/>
    <trip id="387" depart="774.00" from="-39179199#9" to="186786344#1"/>
    <trip id="388" depart="776.00" from="-24672652#1" to="-27255311"/>
    <trip id="389" depart="778.00" from="24621821#0" to="-1035028788"/>
    <trip id="390" depart="780.00" from="-39184315" to="1386851025"/>
    <trip id="391" depart="782.00" from="-879793902" to="391597101"/>
    <trip id="392" depart="784.00" from="42678123#1" to="39186633#0"/>
    <trip id="393" depart="786.00" from="406613067#2" to="1386851025"/>
    <trip id="394" depart="788.00" from="974099555#0" to="-1005953428"/>
    <trip id="395" depart="790.00" from="-137570990#1" to="-281817295"/>
    <trip id="396" depart="792.00" from="35818289#1" to="485508791#2"/>
    <trip id="397" depart="794.00" from="42678123#2" to="-137570975"/>
    <trip id="398" depart="796.00" from="39928256" to="24621756#2"/>
    <trip id="399" depart="798.00" from="-25859623" to="39179158#1"/>
    <trip id="400" depart="800.00" from="1223052674" to="-229599384"/>
    <trip id="401" depart="802.00" from="-53471075#0" to="39179173#0"/>
    <trip id="402" depart="804.00" from="-29468750" to="-1070423328#1"/>
    <trip id="403" depart="806.00" from="-27255364#4" to="181275129#6"/>
    <trip id="404" depart="808.00" from="-39184299#11" to="39179150"/>
    <trip id="405" depart="810.00" from="-39179217" to="39181009#0"/>
    <trip id="406" depart="812.00" from="-24786243#2" to="-39180912#2"/>
    <trip id="407" depart="814.00" from="24786362#4" to="-59039478#0"/>
    <trip id="408" depart="816.00" from="-39198267#1" to="40725240#0"/>
    <trip id="409" depart="818.00" from="310399245#4" to="-181275129#5"/>
    <trip id="410" depart="820.00" from="-288305314" to="53471085"/>
    <trip id="411" depart="822.00" from="-39180776" to="-39198238#0"/>
    <trip id="412" depart="824.00" from="-39199240" to="-39179163#1"/>
    <trip id="413" depart="826.00" from="-39207105#0" to="24644624#1"/>
    <trip id="414" depart="828.00" from="126175900#4" to="39198274"/>
    <trip id="415" depart="830.00" from="39198301#1" to="39186625#1"/>