<?xml version="1.0" encoding="UTF-8"?>

<!-- generated on 12/17/25 20:13:06 by Eclipse SUMO polyconvert Version 1.5.0
<configuration xmlns:xsi="http://www.w3.org/2001/XMLSchema-instance" xsi:noNamespaceSchemaLocation="http://sumo.dlr.de/xsd/polyconvertConfiguration.xsd">

    <input>
        <net-file value="erding.net.xml"/>
        <osm-files value="erding_raw.osm"/>
    </input>

    <output>
        <output-file value="erding.poly.xml"/>
    </output>

    <processing>
        <poi-layer-offset value="5"/>
    </processing>

</configuration>
-->

<additional xmlns:xsi="http://www.w3.org/2001/XMLSchema-instance" xsi:noNamespaceSchemaLocation="http://sumo.dlr.de/xsd/additional_file.xsd">
    <location netOffset="-712690.72,-5347821.34" convBoundary="0.00,0.00,7414.85,13084.87" origBoundary="11.867305,48.247452,11.969971,48.364190" projParameter="+proj=utm +zone=32 +ellps=WGS84 +datum=WGS84 +units=m +no_defs"/>

    <poly id="1001443973" type="building" color="255,230,230" fill="1" layer="-1.00" shape="2183.066989,6044.915842 2182.939408,6054.972015 2185.188220,6055.001356 2188.920849,6055.064519 2189.063691,6044.997793 2183.066989,6044.915842"/>
    <poly id="1001443974" type="building" color="255,230,230" fill="1" layer="-1.00" shape="2189.063691,6044.997793 2188.920849,6055.064519 2191.726198,6055.103767 2195.043594,6055.151240 2195.186446,6045.084514 2189.063691,6044.997793"/>
    <poly id="1001443975" type="building" color="255,230,230" fill="1" layer="-1.00" shape="2194.583185,6059.474313 2199.155795,6059.513582 2199.176721,6056.798794 2194.611104,6056.770919 2194.583185,6059.474313"/>
    <poly id="1001443976" type="building" color="255,230,230" fill="1" layer="-1.00" shape="2175.814197,6062.548979 2181.093317,6062.559286 2181.104653,6057.150817 2175.825528,6057.140510 2175.814197,6062.548979"/>
    <poly id="1001443977" type="building" color="255,230,230" fill="1" layer="-1.00" shape="2194.568416,6062.222722 2199.141023,6062.261990 2199.155795,6059.513582 2194.583185,6059.474313 2194.568416,6062.222722"/>
    <poly id="1001443978" type="building" color="255,230,230" fill="1" layer="-1.00" shape="2204.128235,6046.223790 2204.108654,6041.437399 2198.776349,6041.458450 2198.795935,6046.244841 2204.128235,6046.223790"/>
    <poly id="1001443979" type="building" color="255,230,230" fill="1" layer="-1.00" shape="2126.444201,6046.971999 2133.005976,6046.641194 2132.903039,6044.845469 2132.678566,6040.763623 2126.146444,6041.095549 2126.444201,6046.971999"/>
    <poly id="1001443980" type="building" color="255,230,230" fill="1" layer="-1.00" shape="2133.422619,6053.891054 2136.919794,6053.700438 2136.408055,6044.644020 2132.903039,6044.845469 2133.005976,6046.641194 2133.422619,6053.891054"/>
    <poly id="1001443986" type="building" color="255,230,230" fill="1" layer="-1.00" shape="2696.106907,6384.901897 2700.021533,6386.819801 2701.435941,6387.507770 2706.641030,6390.053305 2711.122496,6380.929974 2700.580945,6375.778278 2696.106907,6384.901897"/>
    <poly id="1001443987" type="building" color="255,230,230" fill="1" layer="-1.00" shape="2676.550917,6396.614920 2679.928331,6398.601494 2683.138158,6400.503815 2687.586924,6393.026395 2681.031860,6389.071938 2676.550917,6396.614920"/>
    <poly id="1001443988" type="building" color="255,230,230" fill="1" layer="-1.00" shape="2683.138158,6400.503815 2686.464088,6402.477313 2689.738956,6404.426620 2694.219491,6396.894761 2687.586924,6393.026395 2683.138158,6400.503815"/>
    <poly id="1001443990" type="building" color="255,230,230" fill="1" layer="-1.00" shape="2419.307489,6577.567657 2419.100951,6578.316645 2426.575602,6580.335689 2433.726547,6582.275717 2437.020566,6570.180222 2422.556792,6566.260655 2422.350253,6567.009643 2419.843868,6566.336068 2416.955966,6576.922202 2419.307489,6577.567657"/>
    <poly id="1001848190" type="building" color="255,230,230" fill="1" layer="-1.00" shape="1515.001173,5267.988442 1535.098355,5268.545126 1535.273047,5262.330419 1515.175843,5261.773735 1515.001173,5267.988442"/>
    <poly id="1001848191" type="building" color="255,230,230" fill="1" layer="-1.00" shape="1497.931410,5296.682385 1522.231183,5297.452961 1522.307791,5295.419182 1522.415254,5291.383289 1522.627552,5284.958542 1517.924635,5284.814786 1510.692489,5284.586898 1498.327725,5284.187965 1498.293284,5285.299599 1498.181707,5288.656449 1497.931410,5296.682385"/>
    <poly id="1001848192" type="building" color="255,230,230" fill="1" layer="-1.00" shape="1532.182838,5297.838952 1556.488772,5298.643296 1556.761101,5290.428988 1556.857220,5287.483340 1556.905369,5286.205282 1545.067550,5285.814971 1537.591099,5285.566716 1532.599801,5285.389826 1532.378940,5291.647311 1532.271470,5295.683204 1532.182838,5297.838952"/>
    <poly id="1001848193" type="building" color="255,230,230" fill="1" layer="-1.00" shape="1522.307791,5295.419182 1524.563048,5295.481874 1532.271470,5295.683204 1532.378940,5291.647311 1524.685344,5291.446539 1522.415254,5291.383289 1522.307791,5295.419182"/>
    <poly id="1001848195" type="building" color="255,230,230" fill="1" layer="-1.00" shape="2303.848105,6524.452839 2313.525134,6527.334082 2314.766503,6523.174101 2317.044402,6515.558678 2307.366933,6512.688543 2305.378120,6519.335512 2303.848105,6524.452839"/>
    <poly id="1001848196" type="building" color="255,230,230" fill="1" layer="-1.00" shape="2448.228891,6581.054961 2448.029764,6581.804229 2454.306402,6583.499734 2467.078308,6586.999207 2470.394640,6574.904571 2453.462848,6570.279392 2453.256305,6571.028378 2448.787992,6569.813102 2445.884787,6580.409775 2448.228891,6581.054961"/>
    <poly id="1001848197" type="building" color="255,230,230" fill="1" layer="-1.00" shape="2426.509182,6558.742019 2426.302643,6559.491007 2431.101245,6560.807799 2436.399808,6562.254811 2439.184990,6563.016850 2440.846415,6556.980778 2442.534292,6550.834414 2429.468245,6547.257095 2429.261705,6548.006082 2427.064187,6547.410970 2425.789826,6552.048250 2424.127995,6558.095439 2426.509182,6558.742019"/>
    <poly id="1002386441" type="building" color="255,230,230" fill="1" layer="-1.00" shape="2215.138234,6699.570203 2224.117760,6700.076631 2224.049719,6701.287167 2227.827942,6701.507919 2231.591757,6701.717000 2231.663162,6700.417555 2240.116709,6700.892992 2240.924001,6686.611056 2232.789237,6686.147672 2232.873518,6684.704031 2223.990351,6684.201235 2223.901450,6685.767124 2215.936789,6685.321325 2215.138234,6699.570203"/>
    <poly id="1002386443" type="building" color="255,230,230" fill="1" layer="-1.00" shape="2591.940921,7227.832588 2596.396124,7228.791540 2597.860035,7222.091386 2593.405248,7221.121319 2592.804994,7223.836439 2591.940921,7227.832588"/>
    <poly id="1002386446" type="building" color="255,230,230" fill="1" layer="-1.00" shape="2607.888378,7216.839735 2621.072805,7220.188344 2622.860155,7213.378022 2623.611383,7210.401516 2610.399385,7206.996211 2607.888378,7216.839735"/>
    <poly id="1002732934" type="building" color="255,230,230" fill="1" layer="-1.00" shape="2699.797808,6021.508069 2701.500910,6022.418428 2702.890472,6019.844511 2701.187370,6018.934151 2699.797808,6021.508069"/>
    <poly id="1002732935" type="building" color="255,230,230" fill="1" layer="-1.00" shape="2874.211010,6087.104443 2882.157982,6088.040136 2883.775097,6088.279522 2891.749198,6089.283034 2896.900650,6047.620268 2887.809365,6046.507616 2879.316580,6045.473318 2874.211010,6087.104443"/>
    <poly id="1003087126" type="building" color="255,230,230" fill="1" layer="-1.00" shape="2430.734917,5600.611610 2435.844388,5586.470186 2475.546704,5600.737794 2470.437141,5614.879185 2430.734917,5600.611610"/>
    <poly id="1003087126#1" type="sport" color="79,230,125" fill="1" layer="-2.00" shape="2430.734917,5600.611610 2435.844388,5586.470186 2475.546704,5600.737794 2470.437141,5614.879185 2430.734917,5600.611610"/>
    <poly id="1004110664" type="building" color="255,230,230" fill="1" layer="-1.00" shape="4048.908174,7759.057605 4055.075606,7758.124221 4054.882276,7756.770153 4053.956485,7750.680282 4047.774220,7751.613102 4048.908174,7759.057605"/>
    <poly id="1004110665" type="building" color="255,230,230" fill="1" layer="-1.00" shape="4055.100562,7774.597137 4058.835117,7773.804687 4062.427560,7773.040208 4060.346778,7762.977494 4056.494884,7763.732079 4056.652225,7764.472640 4053.089429,7765.238254 4055.100562,7774.597137"/>
    <poly id="1004504510" type="building" color="255,230,230" fill="1" layer="-1.00" shape="3769.294908,7250.725840 3773.439163,7249.514731 3779.985337,7247.616031 3778.158065,7241.402865 3776.272534,7234.964887 3766.610419,7237.779978 3765.581661,7238.085817 3769.294908,7250.725840"/>
    <poly id="1004504511" type="building" color="255,230,230" fill="1" layer="-1.00" shape="3774.910558,7254.545728 3781.456727,7252.647030 3779.985337,7247.616031 3773.439163,7249.514731 3774.910558,7254.545728"/>
    <poly id="1004504512" type="building" color="255,230,230" fill="1" layer="-1.00" shape="3759.071703,7240.008172 3765.581661,7238.085817 3766.610419,7237.779978 3765.001106,7232.276287 3757.448827,7234.470578 3759.071703,7240.008172"/>
    <poly id="100461244" type="building" color="255,230,230" fill="1" layer="-1.00" shape="1769.947511,2793.288128 1772.250011,2807.108434 1774.735702,2821.981800 1777.195889,2836.742914 1764.598437,2838.827956 1761.664221,2821.266665 1751.256867,2823.000220 1749.117377,2810.176572 1757.842053,2808.735748 1758.914872,2815.164383 1760.267779,2814.948257 1757.013177,2795.438403 1769.947511,2793.288128"/>
    <poly id="1006125417" type="building" color="255,230,230" fill="1" layer="-1.00" shape="3545.873626,3699.518123 3551.428875,3699.751505 3551.681503,3693.495171 3546.126247,3693.261789 3545.873626,3699.518123"/>
    <poly id="1006587965" type="building" color="255,230,230" fill="1" layer="-1.00" shape="4198.203915,6425.293366 4205.433887,6425.546943 4220.531051,6426.089568 4226.663679,6426.301303 4227.041956,6415.608968 4220.783271,6415.392423 4209.652835,6415.001141 4198.582139,6414.601030 4198.577475,6414.723279 4198.229572,6424.426229 4198.203915,6425.293366"/>
    <poly id="1006587966" type="building" color="255,230,230" fill="1" layer="-1.00" shape="4192.363865,6424.224708 4193.461209,6424.266572 4195.745295,6424.342581 4198.229572,6424.426229 4198.577475,6414.723279 4193.683481,6414.547699 4192.696929,6414.521192 4192.363865,6424.224708"/>
    <poly id="1006587971" type="building" color="255,230,230" fill="1" layer="-1.00" shape="4180.005582,6424.877350 4184.006861,6425.096770 4184.346103,6421.848712 4182.955570,6421.706627 4184.321234,6408.291798 4181.569180,6408.220201 4180.005582,6424.877350"/>
    <poly id="1006726842" type="building" color="255,230,230" fill="1" layer="-1.00" shape="3864.018975,6489.136779 3876.706969,6492.102032 3879.348303,6480.850409 3867.837698,6478.163726 3866.652869,6477.884869 3864.018975,6489.136779"/>
    <poly id="1006726843" type="building" color="255,230,230" fill="1" layer="-1.00" shape="3877.134157,6473.286934 3884.465366,6475.558431 3886.148718,6470.157902 3878.825340,6467.875571 3877.134157,6473.286934"/>
    <poly id="1006726844" type="building" color="255,230,230" fill="1" layer="-1.00" shape="3866.652869,6477.884869 3867.837698,6478.163726 3869.239057,6472.173708 3865.213008,6471.241266 3863.804662,6477.219889 3866.652869,6477.884869"/>
    <poly id="1006726845" type="building" color="255,230,230" fill="1" layer="-1.00" shape="3684.953782,6430.042581 3687.529641,6438.254119 3694.074942,6435.620674 3700.024109,6432.652915 3705.371196,6429.116892 3709.993765,6425.108110 3713.640792,6420.783955 3716.731048,6415.481459 3719.900331,6410.248752 3723.378891,6404.693930 3727.618634,6399.624401 3721.434254,6394.725661 3717.612642,6398.954130 3715.092537,6402.152569 3712.898694,6405.752966 3710.568231,6409.626404 3707.897173,6414.254822 3704.538912,6418.990639 3700.932502,6422.247901 3696.415162,6425.247899 3690.979902,6427.979241 3684.953782,6430.042581"/>
    <poly id="1006726846" type="building" color="255,230,230" fill="1" layer="-1.00" shape="4067.564515,7903.431482 4074.343661,7902.220962 4071.998124,7889.176504 4065.234212,7890.376479 4065.820977,7893.481791 4067.564515,7903.431482"/>
    <poly id="1006726847" type="building" color="255,230,230" fill="1" layer="-1.00" shape="4007.210720,7908.352723 4010.347515,7907.659879 4009.100851,7902.002966 4005.964477,7902.684698 4007.210720,7908.352723"/>
    <poly id="1006726848" type="building" color="255,230,230" fill="1" layer="-1.00" shape="4010.748208,7908.053570 4014.286976,7907.331538 4013.166960,7901.857530 4009.628188,7902.579562 4010.748208,7908.053570"/>
    <poly id="1006726849" type="building" color="255,230,230" fill="1" layer="-1.00" shape="3938.491651,7939.154975 3947.011803,7938.422480 3946.562243,7933.274552 3938.042083,7934.007047 3938.491651,7939.154975"/>
    <poly id="1006726850" type="building" color="255,230,230" fill="1" layer="-1.00" shape="3918.012793,8112.409287 3921.138881,8111.215158 3928.920327,8108.239683 3925.509296,8099.383960 3916.884107,8102.683425 3914.601749,8103.553571 3918.012793,8112.409287"/>
    <poly id="1006726851" type="building" color="255,230,230" fill="1" layer="-1.00" shape="3929.237350,8109.075366 3934.726306,8104.899530 3931.247785,8090.999478 3924.036621,8095.565980 3925.509296,8099.383960 3928.920327,8108.239683 3929.237350,8109.075366"/>
    <poly id="1006726852" type="building" color="255,230,230" fill="1" layer="-1.00" shape="3916.884107,8102.683425 3912.714447,8095.034187 3906.897884,8098.262661 3916.403032,8115.108084 3921.712151,8112.728391 3921.138881,8111.215158 3918.012793,8112.409287 3914.601749,8103.553571 3916.884107,8102.683425"/>
    <poly id="1006726853" type="building" color="255,230,230" fill="1" layer="-1.00" shape="3903.742574,8098.665477 3908.267063,8095.643729 3904.726990,8090.366863 3900.195087,8093.388332 3903.742574,8098.665477"/>
    <poly id="1006726854" type="building" color="255,230,230" fill="1" layer="-1.00" shape="3900.195087,8093.388332 3904.726990,8090.366863 3901.743251,8085.879156 3897.173862,8088.910328 3900.195087,8093.388332"/>
    <poly id="1006726855" type="building" color="255,230,230" fill="1" layer="-1.00" shape="3990.403866,8093.878334 4001.857810,8092.901666 4001.226674,8085.509732 3989.773139,8086.475288 3990.197646,8091.499843 3990.403866,8093.878334"/>
    <poly id="1006726856" type="building" color="255,230,230" fill="1" layer="-1.00" shape="4028.714712,8231.656134 4037.411443,8232.510958 4037.881762,8227.186635 4029.244320,8226.334073 4028.714712,8231.656134"/>
    <poly id="1006726859" type="building" color="255,230,230" fill="1" layer="-1.00" shape="3995.440715,9139.551460 4015.976418,9140.334898 4018.807395,9140.442905 4018.901101,9137.986810 4019.112054,9132.263046 4010.752506,9131.944117 4010.892847,9128.265530 3995.885247,9127.704128 3995.440715,9139.551460"/>
    <poly id="1006726860" type="building" color="255,230,230" fill="1" layer="-1.00" shape="4019.112054,9132.263046 4018.901101,9137.986810 4025.497684,9138.216229 4033.828427,9138.511823 4034.287071,9125.518664 4011.029372,9124.686966 4010.892847,9128.265530 4010.752506,9131.944117 4019.112054,9132.263046"/>
    <poly id="1006726865" type="building" color="255,230,230" fill="1" layer="-1.00" shape="3662.946849,8774.032925 3666.566973,8772.913147 3670.682601,8771.645297 3667.241368,8761.052337 3659.703173,8763.514273 3662.946849,8774.032925"/>
    <poly id="1008925056" type="amenity" color="237,199,199" fill="1" layer="-1.00" shape="1539.816245,5258.828885 1542.516052,5258.919459 1542.600321,5256.485313 1539.900094,5256.405853 1539.816245,5258.828885"/>
    <poly id="1008925056#1" type="building" color="255,230,230" fill="1" layer="-1.00" shape="1539.816245,5258.828885 1542.516052,5258.919459 1542.600321,5256.485313 1539.900094,5256.405853 1539.816245,5258.828885"/>
    <poly id="1008925058" type="amenity" color="237,199,199" fill="1" layer="-1.00" shape="1540.071021,5253.051239 1542.770831,5253.141812 1542.847684,5250.707387 1540.154870,5250.628206 1540.071021,5253.051239"/>
    <poly id="1008925058#1" type="building" color="255,230,230" fill="1" layer="-1.00" shape="1540.071021,5253.051239 1542.770831,5253.141812 1542.847684,5250.707387 1540.154870,5250.628206 1540.071021,5253.051239"/>
    <poly id="1008925060" type="amenity" color="237,199,199" fill="1" layer="-1.00" shape="1540.265214,5247.304698 1542.957611,5247.394991 1543.041461,5244.971959 1540.341228,5244.892500 1540.265214,5247.304698"/>
    <poly id="1008925060#1" type="building" color="255,230,230" fill="1" layer="-1.00" shape="1540.265214,5247.304698 1542.957611,5247.394991 1543.041461,5244.971959 1540.341228,5244.892500 1540.265214,5247.304698"/>
    <poly id="1008925062" type="amenity" color="237,199,199" fill="1" layer="-1.00" shape="1540.413057,5241.211402 1543.112873,5241.301975 1543.188889,5238.889777 1540.488653,5238.810317 1540.413057,5241.211402"/>
    <poly id="1008925062#1" type="building" color="255,230,230" fill="1" layer="-1.00" shape="1540.413057,5241.211402 1543.112873,5241.301975 1543.188889,5238.889777 1540.488653,5238.810317 1540.413057,5241.211402"/>
    <poly id="1008925064" type="amenity" color="237,199,199" fill="1" layer="-1.00" shape="1540.659699,5235.255380 1543.359518,5235.345953 1543.443368,5232.922921 1540.743548,5232.832347 1540.659699,5235.255380"/>
    <poly id="1008925064#1" type="building" color="255,230,230" fill="1" layer="-1.00" shape="1540.659699,5235.255380 1543.359518,5235.345953 1543.443368,5232.922921 1540.743548,5232.832347 1540.659699,5235.255380"/>
    <poly id="1008925072" type="building" color="255,230,230" fill="1" layer="-1.00" shape="2510.957542,7503.548268 2516.024832,7506.177516 2521.609182,7509.071197 2523.640374,7510.127514 2525.681783,7506.209333 2527.851062,7502.051146 2515.167795,7495.483005 2510.957542,7503.548268"/>
    <poly id="1008925073" type="building" color="255,230,230" fill="1" layer="-1.00" shape="2493.670750,7500.923767 2499.046450,7503.642583 2500.933596,7504.582141 2503.391770,7499.655821 2507.588872,7491.545536 2508.225422,7490.222972 2500.955569,7486.553195 2493.670750,7500.923767"/>
    <poly id="1008925074" type="building" color="255,230,230" fill="1" layer="-1.00" shape="2535.895612,7496.045377 2538.734758,7497.722160 2541.787437,7492.584650 2538.940876,7490.907584 2535.895612,7496.045377"/>
    <poly id="1008925075" type="building" color="255,230,230" fill="1" layer="-1.00" shape="2437.357562,7478.892262 2444.250136,7482.135881 2446.832244,7476.680016 2444.171499,7475.388436 2439.963586,7473.392781 2437.357562,7478.892262"/>
    <poly id="1008925076" type="building" color="255,230,230" fill="1" layer="-1.00" shape="2455.225919,7481.060034 2460.041369,7483.479364 2463.523276,7476.610736 2458.700408,7474.191123 2455.225919,7481.060034"/>
    <poly id="1008925077" type="building" color="255,230,230" fill="1" layer="-1.00" shape="2478.373385,7490.851107 2473.244237,7488.286330 2476.014222,7482.770812 2481.143375,7485.335591 2478.373385,7490.851107"/>
    <poly id="1008925078" type="building" color="255,230,230" fill="1" layer="-1.00" shape="2494.320987,7384.934575 2493.768510,7388.742201 2498.154675,7389.364586 2498.707155,7385.556960 2494.320987,7384.934575"/>
    <poly id="1008925079" type="building" color="255,230,230" fill="1" layer="-1.00" shape="2510.684663,7386.655999 2514.508690,7387.223722 2515.226343,7382.387309 2517.803019,7382.763117 2518.059729,7381.081155 2511.652028,7380.126229 2510.684663,7386.655999"/>
    <poly id="1008925080" type="building" color="255,230,230" fill="1" layer="-1.00" shape="2606.822610,7467.791925 2614.241747,7468.696248 2616.552197,7451.800152 2609.166479,7450.796928 2607.829328,7460.618143 2606.822610,7467.791925"/>
    <poly id="1008925081" type="building" color="255,230,230" fill="1" layer="-1.00" shape="2632.969366,7472.677855 2636.220585,7473.079278 2636.956102,7467.186247 2633.704881,7466.784824 2632.969366,7472.677855"/>
    <poly id="1008925082" type="building" color="255,230,230" fill="1" layer="-1.00" shape="2662.533900,7458.483880 2669.183602,7459.514931 2669.996406,7454.325990 2663.354531,7453.284106 2662.533900,7458.483880"/>
    <poly id="1008925083" type="building" color="255,230,230" fill="1" layer="-1.00" shape="2672.673278,7432.858431 2679.587354,7433.966288 2680.595854,7427.727460 2673.674357,7426.619321 2672.673278,7432.858431"/>
    <poly id="1008925084" type="building" color="255,230,230" fill="1" layer="-1.00" shape="2638.763585,7438.095415 2645.086628,7438.735656 2645.666314,7433.037052 2639.343264,7432.396810 2638.763585,7438.095415"/>
    <poly id="1008925085" type="building" color="255,230,230" fill="1" layer="-1.00" shape="2698.237728,7432.936895 2710.408537,7435.201159 2711.461464,7429.553882 2705.917128,7428.542419 2699.282808,7427.300449 2698.237728,7432.936895"/>
    <poly id="1008925086" type="building" color="255,230,230" fill="1" layer="-1.00" shape="2697.184814,7438.584173 2700.649598,7439.227446 2707.962538,7440.584175 2709.363025,7440.848716 2710.408537,7435.201159 2698.237728,7432.936895 2697.184814,7438.584173"/>
    <poly id="1008925087" type="building" color="255,230,230" fill="1" layer="-1.00" shape="2699.613193,7444.830832 2700.649598,7439.227446 2707.962538,7440.584175 2706.933961,7446.176727 2699.613193,7444.830832"/>
    <poly id="1008925088" type="building" color="255,230,230" fill="1" layer="-1.00" shape="2716.675917,7430.063149 2719.750758,7430.613746 2720.635044,7425.694627 2717.552787,7425.143748 2716.675917,7430.063149"/>
    <poly id="1008925089" type="building" color="255,230,230" fill="1" layer="-1.00" shape="2726.152485,7431.724499 2729.235159,7432.264269 2729.919293,7428.316962 2726.843609,7427.788586 2726.152485,7431.724499"/>
    <poly id="1008925090" type="building" color="255,230,230" fill="1" layer="-1.00" shape="2684.506066,7495.365032 2694.186135,7496.355148 2694.502117,7493.306506 2695.855332,7493.446829 2696.183782,7490.265105 2694.911688,7490.138986 2695.239296,7486.979490 2685.455849,7485.974326 2685.128669,7489.122710 2683.635026,7488.965938 2683.306161,7492.158776 2684.822043,7492.316390 2684.506066,7495.365032"/>
    <poly id="1008925091" type="building" color="255,230,230" fill="1" layer="-1.00" shape="2694.913282,7502.437165 2702.552820,7503.205277 2703.123045,7497.561963 2695.483920,7496.782738 2694.913282,7502.437165"/>
    <poly id="1008925092" type="building" color="255,230,230" fill="1" layer="-1.00" shape="2689.597638,7537.115616 2697.231233,7538.039312 2697.880720,7532.654981 2690.247118,7531.731285 2689.597638,7537.115616"/>
    <poly id="1008925093" type="building" color="255,230,230" fill="1" layer="-1.00" shape="2674.534227,7588.853475 2679.451933,7588.961938 2679.569526,7583.312599 2674.651815,7583.204136 2674.534227,7588.853475"/>
    <poly id="1009719451" type="building" color="255,230,230" fill="1" layer="-1.00" shape="2216.899352,4373.178020 2228.825591,4377.178862 2233.649833,4363.516169 2221.517147,4359.474131 2219.450423,4365.617379 2217.702920,4370.782172 2216.899352,4373.178020"/>
    <poly id="1009904331" type="building" color="255,230,230" fill="1" layer="-1.00" shape="1836.556988,2794.206950 1839.798012,2794.162174 1839.732175,2789.207154 1836.491148,2789.251930 1836.556988,2794.206950"/>
    <poly id="1010040958" type="building" color="255,230,230" fill="1" layer="-1.00" shape="2614.241747,7468.696248 2616.222132,7468.938218 2615.020675,7478.508595 2613.048128,7478.255792 2614.241747,7468.696248"/>
    <poly id="1010040959" type="building" color="255,230,230" fill="1" layer="-1.00" shape="2591.681867,7449.667126 2594.313035,7451.347188 2597.366298,7446.588128 2594.734707,7444.919178 2591.681867,7449.667126"/>
    <poly id="1012890989" type="amenity" color="237,199,199" fill="1" layer="-1.00" shape="2772.417917,4149.009902 2784.508278,4149.467817 2794.684949,4149.853273 2795.542843,4127.203935 2773.275301,4126.371677 2772.417917,4149.009902"/>
    <poly id="1012890989#1" type="building" color="255,230,230" fill="1" layer="-1.00" shape="2772.417917,4149.009902 2784.508278,4149.467817 2794.684949,4149.853273 2795.542843,4127.203935 2773.275301,4126.371677 2772.417917,4149.009902"/>
    <poly id="1014452398" type="building" color="255,230,230" fill="1" layer="-1.00" shape="4225.504568,6655.551161 4237.979144,6658.843004 4241.457344,6645.720258 4228.982316,6642.439521 4225.504568,6655.551161"/>
    <poly id="1014452399" type="building" color="255,230,230" fill="1" layer="-1.00" shape="4247.606570,6659.110237 4253.855812,6660.929146 4257.167681,6649.636461 4250.918427,6647.817548 4247.606570,6659.110237"/>
    <poly id="1014452400" type="building" color="255,230,230" fill="1" layer="-1.00" shape="4230.761602,6617.409938 4238.124931,6619.416025 4240.366891,6611.254470 4233.003976,6609.237266 4230.761602,6617.409938"/>
    <poly id="1014452401" type="building" color="255,230,230" fill="1" layer="-1.00" shape="4253.855812,6660.929146 4260.155678,6662.783384 4263.460569,6651.479306 4257.167681,6649.636461 4253.855812,6660.929146"/>
    <poly id="1014452403" type="building" color="255,230,230" fill="1" layer="-1.00" shape="4254.243803,6637.727386 4259.300245,6639.088979 4260.294119,6635.420717 4261.137776,6632.381116 4256.074338,6631.008125 4254.243803,6637.727386"/>
    <poly id="1014452404" type="building" color="255,230,230" fill="1" layer="-1.00" shape="4258.479256,6642.118316 4263.535269,6643.491027 4265.357976,6636.782599 4260.294119,6635.420717 4259.300245,6639.088979 4258.479256,6642.118316"/>
    <poly id="1014452405" type="building" color="255,230,230" fill="1" layer="-1.00" shape="4288.914183,6668.967302 4291.859692,6669.803164 4295.304273,6670.791635 4298.695899,6658.967786 4292.305795,6657.143450 4288.914183,6668.967302"/>
    <poly id="1014452406" type="building" color="255,230,230" fill="1" layer="-1.00" shape="4282.488290,6667.108220 4285.433377,6667.955193 4288.914183,6668.967302 4292.305795,6657.143450 4285.879890,6655.284366 4282.488290,6667.108220"/>
    <poly id="1014452408" type="building" color="255,230,230" fill="1" layer="-1.00" shape="3944.255218,6647.152106 3949.344533,6647.846893 3952.666238,6623.810980 3947.569911,6623.104794 3944.255218,6647.152106"/>
    <poly id="1014546066" type="building" color="255,230,230" fill="1" layer="-1.00" shape="3287.571352,6515.698874 3297.805836,6514.062131 3305.559765,6512.831987 3303.062759,6497.255871 3300.204477,6479.462376 3297.545667,6462.867327 3290.202422,6464.035182 3279.549691,6465.733963 3287.571352,6515.698874"/>
    <poly id="1014546074" type="building" color="255,230,230" fill="1" layer="-1.00" shape="3303.144276,6531.849694 3305.465093,6531.348007 3307.431761,6531.177881 3305.071709,6516.297001 3300.776377,6516.979648 3303.144276,6531.849694"/>
    <poly id="1017651947" type="building" color="255,230,230" fill="1" layer="-1.00" shape="4390.306366,9525.606637 4398.679511,9526.138151 4399.035684,9520.508961 4399.387610,9514.990907 4391.021859,9514.459677 4390.306366,9525.606637"/>
    <poly id="1020955998" type="building" color="255,230,230" fill="1" layer="-1.00" shape="2795.018036,4288.527807 2800.089729,4288.764438 2800.439963,4281.087248 2795.367842,4280.861731 2795.018036,4288.527807"/>
    <poly id="1028163605" type="building" color="255,230,230" fill="1" layer="-1.00" shape="1358.258171,4856.001310 1375.645694,4867.417706 1392.389685,4842.851210 1387.026895,4839.510902 1385.699318,4840.251114 1379.761369,4834.629921 1374.862229,4831.796766 1373.926551,4833.174970 1358.258171,4856.001310"/>
    <poly id="1031399457" type="building" color="255,230,230" fill="1" layer="-1.00" shape="3621.924015,6245.552316 3629.515635,6240.599117 3630.182397,6241.615022 3632.702631,6239.974696 3634.971838,6238.491763 3634.445758,6237.681543 3641.105938,6233.204879 3634.198107,6223.504121 3615.768409,6235.401628 3621.924015,6245.552316"/>
    <poly id="1031408226" type="building" color="255,230,230" fill="1" layer="-1.00" shape="3333.690841,5931.122995 3346.242386,5930.876462 3346.135936,5925.274243 3346.049585,5921.097374 3348.754597,5921.044339 3348.618571,5914.461594 3348.439200,5905.306273 3335.099905,5905.567395 3335.350908,5917.919622 3333.418756,5917.957509 3333.690841,5931.122995"/>
    <poly id="1031408236" type="building" color="255,230,230" fill="1" layer="-1.00" shape="3152.272225,5889.631452 3161.253766,5889.338023 3161.181711,5887.910706 3161.090339,5883.666881 3152.086965,5883.948353 3152.272225,5889.631452"/>
    <poly id="1031408238" type="building" color="255,230,230" fill="1" layer="-1.00" shape="3207.166229,5892.505743 3226.334977,5891.653228 3226.028016,5884.874803 3206.859246,5885.727320 3207.166229,5892.505743"/>
    <poly id="1031411749" type="amenity" color="237,199,199" fill="1" layer="-1.00" shape="1005.456213,7211.554263 1040.270855,7189.525247 983.873889,7100.807741 980.312457,7095.420831 973.148053,7099.970480 945.534603,7117.451614 1005.456213,7211.554263"/>
    <poly id="1031411749#1" type="building" color="255,230,230" fill="1" layer="-1.00" shape="1005.456213,7211.554263 1040.270855,7189.525247 983.873889,7100.807741 980.312457,7095.420831 973.148053,7099.970480 945.534603,7117.451614 1005.456213,7211.554263"/>
    <poly id="1031411750" type="building" color="255,230,230" fill="1" layer="-1.00" shape="945.534603,7117.451614 929.055179,7128.072785 920.608899,7114.978930 944.824073,7098.827881 951.252218,7094.706824 958.179483,7089.947908 961.134202,7093.108398 966.417126,7090.224175 973.148053,7099.970480 945.534603,7117.451614"/>
    <poly id="1031411751" type="building" color="255,230,230" fill="1" layer="-1.00" shape="944.824073,7098.827881 942.416808,7093.940680 940.819900,7090.207996 937.755656,7083.047989 945.564597,7080.114010 946.785611,7083.576593 947.565895,7085.531288 947.816802,7086.163958 949.132623,7089.474296 951.252218,7094.706824 944.824073,7098.827881"/>