<?xml version="1.0" encoding="UTF-8"?>
<!-- generated on 2025-12-17 20:13:22.650213 by randomTrips.py v1_5_0+0000-3a3be608d2
  options: -n erding.net.xml -r erding.trips.xml -e 3600 -p 2
-->
<routes xmlns:xsi="http://www.w3.org/2001/XMLSchema-instance" xsi:noNamespaceSchemaLocation="http://sumo.dlr.de/xsd/routes_file.xsd">
    <trip id="0" depart="0.00" from="-207974483#0" to="7724593"/>
    <trip id="1" depart="2.00" from="24701372#1" to="234809995#1"/>
    <trip id="2" depart="4.00" from="454633805#1" to="244080141#5"/>
    <trip id="3" depart="6.00" from="157285331#4" to="-24759170#0"/>
    <trip id="4" depart="8.00" from="208481005#2" to="-7667109#0"/>
    <trip id="5" depart="10.00" from="30473853#0" to="-798811713#0"/>
    <trip id="6" depart="12.00" from="-908516190" to="-239158420#5"/>
    <trip id="7" depart="14.00" from="-211459908#1" to="32035024#1"/>
    <trip id="8" depart="16.00" from="8166443#1" to="857860359"/>
    <trip id="9" depart="18.00" from="-23754881#0" to="-233499677"/>
    <trip id="10" depart="20.00" from="-232695150" to="-780976706"/>
    <trip id="11" depart="22.00" from="-30277371#3" to="26770649#0"/>
    <trip id="12" depart="24.00" from="231759656#2" to="1187425030"/>
    <trip id="13" depart="26.00" from="245517392#0" to="858340581"/>
    <trip id="14" depart="28.00" from="837846858#0" to="-829412778"/>
    <trip id="15" depart="30.00" from="25624546#0" to="997234637#0"/>
    <trip id="16" depart="32.00" from="23600085#0" to="-887647273"/>
    <trip id="17" depart="34.00" from="-26950523#5" to="-8117683#3"/>
    <trip id="18" depart="36.00" from="23903988#8" to="-912551512#1"/>
    <trip id="19" depart="38.00" from="-233590817#0" to="1145547637"/>
    <trip id="20" depart="40.00" from="255577408#0" to="-240420663"/>
    <trip id="21" depart="42.00" from="-1187374762#5" to="-238627901#1"/>
    <trip id="22" depart="44.00" from="-454739498#0" to="889782231"/>
    <trip id="23" depart="46.00" from="172664414#1" to="-7325283#8"/>
    <trip id="24" depart="48.00" from="7325283#5" to="-142048639"/>
    <trip id="25" depart="50.00" from="-24608159#1" to="24701380#0"/>
    <trip id="26" depart="52.00" from="-307056330#1" to="1375948032#1"/>
    <trip id="27" depart="54.00" from="321535688#4" to="-23600833#0"/>
    <trip id="28" depart="56.00" from="-23600822#2" to="143829008#1"/>
    <trip id="29" depart="58.00" from="-1145547631" to="238369086#6"/>
    <trip id="30" depart="60.00" from="1187374763#6" to="259588026"/>
    <trip id="31" depart="62.00" from="454633805#0" to="-7662847#0"/>
    <trip id="32" depart="64.00" from="7325283#15" to="1187374763#4"/>
    <trip id="33" depart="66.00" from="-26773590#3" to="-1303342783"/>
    <trip id="34" depart="68.00" from="961400391#1" to="233472348"/>
    <trip id="35" depart="70.00" from="-4045890" to="-235025106#3"/>
    <trip id="36" depart="72.00" from="881642152#2" to="233471830"/>
    <trip id="37" depart="74.00" from="-8117683#0" to="232695150"/>
    <trip id="38" depart="76.00" from="-538790475#5" to="-100220053"/>
    <trip id="39" depart="78.00" from="234108230#1" to="42386873#0"/>
    <trip id="40" depart="80.00" from="252232148" to="24658601#1"/>
    <trip id="41" depart="82.00" from="-8010432#0" to="-326017710#3"/>
    <trip id="42" depart="84.00" from="-234952465#1" to="1243705805#0"/>
    <trip id="43" depart="86.00" from="224999257#1" to="-23600094#1"/>
    <trip id="44" depart="88.00" from="-233472344#1" to="-26992614"/>
    <trip id="45" depart="90.00" from="-7665123#1" to="209880995#2"/>
    <trip id="46" depart="92.00" from="137535693#4" to="-234114626#4"/>
    <trip id="47" depart="94.00" from="5053195#1" to="207375824#1"/>
    <trip id="48" depart="96.00" from="232472259" to="-259588026"/>
    <trip id="49" depart="98.00" from="725458486" to="305935680#3"/>
    <trip id="50" depart="100.00" from="209160910#3" to="23012870#1"/>
    <trip id="51" depart="102.00" from="-237993313#0" to="-207375802#5"/>
    <trip id="52" depart="104.00" from="-28058884#0" to="-7325283#14"/>
    <trip id="53" depart="106.00" from="-23600103#4" to="-1014639673#0"/>
    <trip id="54" depart="108.00" from="-26745421#1" to="173493913#10"/>
    <trip id="55" depart="110.00" from="24607948#0" to="24622428#0"/>
    <trip id="56" depart="112.00" from="-237993305#0" to="356780074#4"/>
    <trip id="57" depart="114.00" from="24608150#0" to="300971798#0"/>
    <trip id="58" depart="116.00" from="173495887#0" to="24701455#0"/>
    <trip id="59" depart="118.00" from="-24608159#4" to="234381811#1"/>
    <trip id="60" depart="120.00" from="-234480044" to="1000253575"/>
    <trip id="61" depart="122.00" from="-26745421#1" to="23600087#0"/>
    <trip id="62" depart="124.00" from="23600838#0" to="260233599"/>
    <trip id="63" depart="126.00" from="7726086#2" to="-8059953#4"/>
    <trip id="64" depart="128.00" from="-237993313#13" to="231759657#1"/>
    <trip id="65" depart="130.00" from="-320205641#0" to="-1432382769"/>
    <trip id="66" depart="132.00" from="-32035024#1" to="358513446#1"/>
    <trip id="67" depart="134.00" from="-24455494" to="-209288622#1"/>
    <trip id="68" depart="136.00" from="-237993313#2" to="7662847#1"/>
    <trip id="69" depart="138.00" from="23600310" to="-23600828"/>
    <trip id="70" depart="140.00" from="237993306#0" to="-234560348"/>
    <trip id="71" depart="142.00" from="-557697315#0" to="225010837#2"/>
    <trip id="72" depart="144.00" from="8167757#2" to="-24732633"/>
    <trip id="73" depart="146.00" from="-24644751" to="-23903987#2"/>
    <trip id="74" depart="148.00" from="-173450678#1" to="23600472#2"/>
    <trip id="75" depart="150.00" from="261715852#6" to="306120870#0"/>
    <trip id="76" depart="152.00" from="234107320#3" to="209423893"/>
    <trip id="77" depart="154.00" from="-231759638" to="-24608160#3"/>
    <trip id="78" depart="156.00" from="-24663900#1" to="-24676597"/>
    <trip id="79" depart="158.00" from="-23903983#1" to="7664860#1"/>
    <trip id="80" depart="160.00" from="30473845#1" to="-237993313#1"/>
    <trip id="81" depart="162.00" from="-24663910#3" to="-26646037"/>
    <trip id="82" depart="164.00" from="23903989" to="-23604144#0"/>
    <trip id="83" depart="166.00" from="-233591747" to="37049597"/>
    <trip id="84" depart="168.00" from="157354497#1" to="-78416473#2"/>
    <trip id="85" depart="170.00" from="436195311#3" to="-391998952#1"/>
    <trip id="86" depart="172.00" from="-1348049137" to="327300782"/>
    <trip id="87" depart="174.00" from="-234345191#1" to="1015670220"/>
    <trip id="88" depart="176.00" from="-23600832#3" to="-302079224#0"/>
    <trip id="89" depart="178.00" from="-231759637" to="356780073#1"/>
    <trip id="90" depart="180.00" from="1187374763#1" to="24817898#0"/>
    <trip id="91" depart="182.00" from="-60339266#0" to="24708742#3"/>
    <trip id="92" depart="184.00" from="-60339265#3" to="-1362056863"/>
    <trip id="93" depart="186.00" from="-23600826#7" to="-209288622#0"/>
    <trip id="94" depart="188.00" from="265360163" to="1379194310#1"/>
    <trip id="95" depart="190.00" from="-959173420" to="46188025#0"/>
    <trip id="96" depart="192.00" from="-454739498#2" to="-208481005#5"/>
    <trip id="97" depart="194.00" from="300971793#4" to="237993306#1"/>
    <trip id="98" depart="196.00" from="164016890#1" to="-231759637"/>
    <trip id="99" depart="198.00" from="-857860361#0" to="24645437#4"/>
    <trip id="100" depart="200.00" from="-208481005#6" to="8117683#3"/>
    <trip id="101" depart="202.00" from="-686468681#0" to="234948656"/>
    <trip id="102" depart="204.00" from="-252577009" to="237993310"/>
    <trip id="103" depart="206.00" from="238627901#1" to="-237993313#10"/>
    <trip id="104" depart="208.00" from="-240056579" to="209880995#0"/>
    <trip id="105" depart="210.00" from="-233590816#5" to="835860399#1"/>
    <trip id="106" depart="212.00" from="857860361#0" to="-30473090#0"/>
    <trip id="107" depart="214.00" from="-234417443" to="324556170#1"/>
    <trip id="108" depart="216.00" from="454750347#1" to="436195311#1"/>
    <trip id="109" depart="218.00" from="238699236#2" to="247994844#3"/>
    <trip id="110" depart="220.00" from="-23012873#3" to="238645816"/>
    <trip id="111" depart="222.00" from="284068384" to="24701372#4"/>
    <trip id="112" depart="224.00" from="173450925#3" to="-23012872#4"/>
    <trip id="113" depart="226.00" from="209288622#1" to="261715852#11"/>
    <trip id="114" depart="228.00" from="-42386873#0" to="1066333371#0"/>
    <trip id="115" depart="230.00" from="237993312#0" to="-1379194310#1"/>
    <trip id="116" depart="232.00" from="-327300774#1" to="23600093#4"/>
    <trip id="117" depart="234.00" from="163974848#0" to="-231801780"/>
    <trip id="118" depart="236.00" from="60339266#1" to="-208481005#2"/>
    <trip id="119" depart="238.00" from="259789589" to="8002863#1"/>
    <trip id="120" depart="240.00" from="23600093#0" to="244080141#2"/>
    <trip id="121" depart="242.00" from="305186021" to="321535693#1"/>
    <trip id="122" depart="244.00" from="17990907" to="302056010#0"/>
    <trip id="123" depart="246.00" from="-208442530#4" to="23604149"/>
    <trip id="124" depart="248.00" from="-327360470" to="37049596#4"/>
    <trip id="125" depart="250.00" from="234107323#1" to="238369086#13"/>
    <trip id="126" depart="252.00" from="232472260#5" to="798811713#0"/>
    <trip id="127" depart="254.00" from="881642152#1" to="-8002859#0"/>
    <trip id="128" depart="256.00" from="-240979376" to="-207375822"/>
    <trip id="129" depart="258.00" from="1214071796" to="209160910#3"/>
    <trip id="130" depart="260.00" from="238498351#0" to="233566295#3"/>
    <trip id="131" depart="262.00" from="-1014639667#1" to="23600313"/>
    <trip id="132" depart="264.00" from="-23161935" to="1375948032#0"/>
    <trip id="133" depart="266.00" from="-247994844#5" to="237993305#11"/>
    <trip id="134" depart="268.00" from="-293945631#4" to="23754873"/>
    <trip id="135" depart="270.00" from="-24607947#2" to="208442530#3"/>
    <trip id="136" depart="272.00" from="237993313#14" to="-294584455"/>
    <trip id="137" depart="274.00" from="214463635#1" to="-214463635#0"/>
    <trip id="138" depart="276.00" from="1260833895" to="22918652#10"/>
    <trip id="139" depart="278.00" from="-829412779" to="979558298"/>
    <trip id="140" depart="280.00" from="-314302066#1" to="-234108234#2"/>
    <trip id="141" depart="282.00" from="-858340582#1" to="25633204#0"/>
    <trip id="142" depart="284.00" from="23754115#1" to="1146675382#1"/>
    <trip id="143" depart="286.00" from="-208442530#3" to="24607948#0"/>
    <trip id="144" depart="288.00" from="-538790475#3" to="24608151#1"/>
    <trip id="145" depart="290.00" from="1145547636" to="24644751"/>
    <trip id="146" depart="292.00" from="321840433" to="28058884#2"/>
    <trip id="147" depart="294.00" from="17992458" to="744937099"/>
    <trip id="148" depart="296.00" from="7667109#4" to="30473856#4"/>
    <trip id="149" depart="298.00" from="23600472#0" to="209160910#0"/>
    <trip id="150" depart="300.00" from="-232474631#0" to="156337778#1"/>
    <trip id="151" depart="302.00" from="-164016889" to="209880995#1"/>
    <trip id="152" depart="304.00" from="-207375802#0" to="326992558"/>
    <trip id="153" depart="306.00" from="-321840429" to="-23754864#3"/>
    <trip id="154" depart="308.00" from="7665677#0" to="797595803#2"/>
    <trip id="155" depart="310.00" from="23600826#4" to="-7667108#0"/>
    <trip id="156" depart="312.00" from="232504375" to="234922925"/>
    <trip id="157" depart="314.00" from="-837846858#1" to="238369086#15"/>
    <trip id="158" depart="316.00" from="-233590816#3" to="1375948031"/>
    <trip id="159" depart="318.00" from="231759656#4" to="-233590816#20"/>
    <trip id="160" depart="320.00" from="-24608187#3" to="-7662848"/>
    <trip id="161" depart="322.00" from="42386873#2" to="24733202#6"/>
    <trip id="162" depart="324.00" from="23905657" to="329490610"/>
    <trip id="163" depart="326.00" from="23181959#0" to="234922927"/>
    <trip id="164" depart="328.00" from="202442196#0" to="234214994"/>
    <trip id="165" depart="330.00" from="263933083" to="-232472263"/>
    <trip id="166" depart="332.00" from="1013511220" to="159207936#1"/>
    <trip id="167" depart="334.00" from="30473842#4" to="-259588026"/>
    <trip id="168" depart="336.00" from="777315044#7" to="202442196#0"/>
    <trip id="169" depart="338.00" from="238369086#10" to="231764580"/>
    <trip id="170" depart="340.00" from="-24719341#1" to="23600826#7"/>
    <trip id="171" depart="342.00" from="-307056330#3" to="214258275#1"/>
    <trip id="172" depart="344.00" from="234726285" to="1214901784"/>
    <trip id="173" depart="346.00" from="209160910#3" to="-1197784232#0"/>
    <trip id="174" depart="348.00" from="-23904004#0" to="-777315044#4"/>
    <trip id="175" depart="350.00" from="-234547986" to="30473850#1"/>
    <trip id="176" depart="352.00" from="1115060210" to="23012868"/>
    <trip id="177" depart="354.00" from="7325283#12" to="-234480045#3"/>
    <trip id="178" depart="356.00" from="-23181957" to="307062725"/>
    <trip id="179" depart="358.00" from="1214071141#0" to="754976645"/>
    <trip id="180" depart="360.00" from="-234174120#1" to="-24658601#0"/>
    <trip id="181" depart="362.00" from="-886305865" to="961390057#0"/>
    <trip id="182" depart="364.00" from="24663900#2" to="237993305#15"/>
    <trip id="183" depart="366.00" from="23600822#3" to="235051930#1"/>
    <trip id="184" depart="368.00" from="-754976646#0" to="-1323437904#0"/>
    <trip id="185" depart="370.00" from="-1375636434" to="261715852#5"/>
    <trip id="186" depart="372.00" from="301094733#0" to="-677369385#1"/>
    <trip id="187" depart="374.00" from="32035024#0" to="979698028#1"/>
    <trip id="188" depart="376.00" from="-327360469" to="847323939"/>
    <trip id="189" depart="378.00" from="-233543815#1" to="32035028#3"/>
    <trip id="190" depart="380.00" from="208442530#3" to="305935680#4"/>
    <trip id="191" depart="382.00" from="24607948#1" to="858340582#2"/>
    <trip id="192" depart="384.00" from="8003050#1" to="881642154"/>
    <trip id="193" depart="386.00" from="-37049596#11" to="23754868#3"/>
    <trip id="194" depart="388.00" from="-1375636434" to="1363995309"/>
    <trip id="195" depart="390.00" from="841384768#2" to="-24607938#3"/>
    <trip id="196" depart="392.00" from="234480045#2" to="-1432382769"/>
    <trip id="197" depart="394.00" from="234951633#4" to="261715852#8"/>
    <trip id="198" depart="396.00" from="-24608159#6" to="-210389260#0"/>
    <trip id="199" depart="398.00" from="24759170#2" to="24701377"/>
    <trip id="200" depart="400.00" from="-23012865" to="233591747"/>
    <trip id="201" depart="402.00" from="326017716" to="-239159232"/>
    <trip id="202" depart="404.00" from="232698723#1" to="227023306"/>
    <trip id="203" depart="406.00" from="-23600827#1" to="93732085"/>
    <trip id="204" depart="408.00" from="-244080141#2" to="300971793#0"/>
    <trip id="205" depart="410.00" from="247994845" to="207375801"/>
    <trip id="206" depart="412.00" from="-24732632" to="8059953#0"/>
    <trip id="207" depart="414.00" from="26770032" to="23897187"/>
    <trip id="208" depart="416.00" from="1000253578" to="23903987#2"/>
    <trip id="209" depart="418.00" from="-231759646#4" to="30473075#3"/>
    <trip id="210" depart="420.00" from="232472260#4" to="-234385363#4"/>
    <trip id="211" depart="422.00" from="233590816#16" to="78416473#3"/>
    <trip id="212" depart="424.00" from="320651951" to="24676603#0"/>
    <trip id="213" depart="426.00" from="725458486" to="30473075#4"/>
    <trip id="214" depart="428.00" from="-207375840#1" to="1016083681#1"/>
    <trip id="215" depart="430.00" from="-239158420#4" to="1013511219#1"/>
    <trip id="216" depart="432.00" from="-245517339" to="-233136297#1"/>
    <trip id="217" depart="434.00" from="-7664863#0" to="-30473842#1"/>
    <trip id="218" depart="436.00" from="-233590628" to="961390061"/>
    <trip id="219" depart="438.00" from="-804531682#1" to="-321535688#12"/>
    <trip id="220" depart="440.00" from="-24701373#2" to="24607944#1"/>
    <trip id="221" depart="442.00" from="320205641#0" to="327360469"/>
    <trip id="222" depart="444.00" from="23904009#0" to="-261715852#12"/>
    <trip id="223" depart="446.00" from="-255282609" to="242085983#1"/>
    <trip id="224" depart="448.00" from="1323437904#0" to="192288867"/>
    <trip id="225" depart="450.00" from="-239019683#2" to="1214071141#2"/>
    <trip id="226" depart="452.00" from="-24817986" to="356886667#0"/>
    <trip id="227" depart="454.00" from="143829008#0" to="-208481004"/>
    <trip id="228" depart="456.00" from="738376249#1" to="-30473842#1"/>
    <trip id="229" depart="458.00" from="310762177#8" to="-24751973#1"/>
    <trip id="230" depart="460.00" from="-42386873#0" to="238369086#14"/>
    <trip id="231" depart="462.00" from="-908516193" to="1197784232#2"/>
    <trip id="232" depart="464.00" from="234417443" to="-60339265#3"/>
    <trip id="233" depart="466.00" from="23009781#1" to="-240434185#8"/>
    <trip id="234" depart="468.00" from="234385363#4" to="224999257#5"/>
    <trip id="235" depart="470.00" from="-232859006" to="23600826#3"/>
    <trip id="236" depart="472.00" from="-211459899#2" to="-302047361#0"/>
    <trip id="237" depart="474.00" from="233590816#39" to="235026486#6"/>
    <trip id="238" depart="476.00" from="-239018530" to="23628703"/>
    <trip id="239" depart="478.00" from="257242689#1" to="-785695848#1"/>
    <trip id="240" depart="480.00" from="1187374762#0" to="857732068#2"/>
    <trip id="241" depart="482.00" from="-649066364#1" to="-234520003#0"/>
    <trip id="242" depart="484.00" from="-24622429#3" to="-261715852#10"/>
    <trip id="243" depart="486.00" from="207375824#1" to="-22918652#7"/>
    <trip id="244" depart="488.00" from="73553438#6" to="-23904004#0"/>
    <trip id="245" depart="490.00" from="76145454" to="240434182"/>
    <trip id="246" depart="492.00" from="23600820#5" to="319795201"/>
    <trip id="247" depart="494.00" from="231759657#1" to="322820608"/>
    <trip id="248" depart="496.00" from="157354493#1" to="1217427575#2"/>
    <trip id="249" depart="498.00" from="-214463635#1" to="-30473845#1"/>
    <trip id="250" depart="500.00" from="-234114626#5" to="-302035598#2"/>
    <trip id="251" depart="502.00" from="237993305#6" to="-233590816#2"/>
    <trip id="252" depart="504.00" from="-5053195#3" to="234951636#0"/>
    <trip id="253" depart="506.00" from="232472260#2" to="-912551512#2"/>
    <trip id="254" depart="508.00" from="958261949" to="-233590816#16"/>
    <trip id="255" depart="510.00" from="-23600312#0" to="23600093#1"/>
    <trip id="256" depart="512.00" from="209160935" to="-8059953#2"/>
    <trip id="257" depart="514.00" from="1187374762#1" to="-7325283#15"/>
    <trip id="258" depart="516.00" from="-912547687" to="-210389260#0"/>
    <trip id="259" depart="518.00" from="-798811713#0" to="83027294"/>
    <trip id="260" depart="520.00" from="-7665123#1" to="-214463635#0"/>
    <trip id="261" depart="522.00" from="-209395124" to="23600085#0"/>
    <trip id="262" depart="524.00" from="1115060208" to="238492601#1"/>
    <trip id="263" depart="526.00" from="-1126765977" to="24644770#4"/>
    <trip id="264" depart="528.00" from="-37049596#6" to="-1014639673#0"/>
    <trip id="265" depart="530.00" from="686468681#0" to="98417947#1"/>
    <trip id="266" depart="532.00" from="234424770#0" to="390951297"/>
    <trip id="267" depart="534.00" from="232472261" to="-7726410#2"/>
    <trip id="268" depart="536.00" from="-235025106#7" to="23012882#0"/>
    <trip id="269" depart="538.00" from="24644770#4" to="-943888221"/>
    <trip id="270" depart="540.00" from="-26126250" to="237993312#7"/>
    <trip id="271" depart="542.00" from="5053197#1" to="7664866#3"/>
    <trip id="272" depart="544.00" from="-157285056#0" to="725458503"/>
    <trip id="273" depart="546.00" from="-454633805#3" to="-537377255"/>
    <trip id="274" depart="548.00" from="8075704" to="-1432382769"/>
    <trip id="275" depart="550.00" from="232501685#3" to="-238369086#7"/>
    <trip id="276" depart="552.00" from="259789590" to="-40808544"/>
    <trip id="277" depart="554.00" from="78416471#2" to="23600470#2"/>
    <trip id="278" depart="556.00" from="-24676603#1" to="-260233598"/>
    <trip id="279" depart="558.00" from="-234424772#4" to="24607944#18"/>
    <trip id="280" depart="560.00" from="214117417" to="-235026486#5"/>
    <trip id="281" depart="562.00" from="237993313#10" to="-321535688#4"/>
    <trip id="282" depart="564.00" from="-26992614" to="-235026486#3"/>
    <trip id="283" depart="566.00" from="-234723930#2" to="60339265#1"/>
    <trip id="284" depart="568.00" from="-233152968" to="908516193"/>
    <trip id="285" depart="570.00" from="-23600091#2" to="-8059953#3"/>
    <trip id="286" depart="572.00" from="744937099" to="881642152#2"/>
    <trip id="287" depart="574.00" from="23604144#0" to="-235026486#1"/>
    <trip id="288" depart="576.00" from="234419772#1" to="23754879#1"/>
    <trip id="289" depart="578.00" from="-233471924" to="-26773708#3"/>
    <trip id="290" depart="580.00" from="-857732068#0" to="-837846857"/>
    <trip id="291" depart="582.00" from="137535693#3" to="211350170#1"/>
    <trip id="292" depart="584.00" from="1375948032#0" to="-686468681#0"/>
    <trip id="293" depart="586.00" from="-1000633952" to="232570959#0"/>
    <trip id="294" depart="588.00" from="797595803#2" to="-231759640#0"/>
    <trip id="295" depart="590.00" from="1214071146#0" to="238280459"/>
    <trip id="296" depart="592.00" from="-302082178" to="-24607952#0"/>
    <trip id="297" depart="594.00" from="137535693#2" to="257242689#1"/>
    <trip id="298" depart="596.00" from="-209499159" to="-231759608#3"/>
    <trip id="299" depart="598.00" from="24607944#18" to="902066514#1"/>
    <trip id="300" depart="600.00" from="-237993305#7" to="-231759623"/>
    <trip id="301" depart="602.00" from="738376249#1" to="-173493913#13"/>
    <trip id="302" depart="604.00" from="-725458459" to="8010431#2"/>
    <trip id="303" depart="606.00" from="-23600103#0" to="-873331594"/>
    <trip id="304" depart="608.00" from="30473850#5" to="-7662848"/>
    <trip id="305" depart="610.00" from="-23600472#3" to="-233590816#29"/>
    <trip id="306" depart="612.00" from="-910097416" to="234952728#0"/>
    <trip id="307" depart="614.00" from="8010639#1" to="-233590816#26"/>
    <trip id="308" depart="616.00" from="115515451#0" to="841384768#2"/>
    <trip id="309" depart="618.00" from="858340577" to="-24817965#0"/>
    <trip id="310" depart="620.00" from="23600083#0" to="-233334264"/>
    <trip id="311" depart="622.00" from="-237993305#9" to="-24663900#0"/>
    <trip id="312" depart="624.00" from="777315044#0" to="-23903988#7"/>
    <trip id="313" depart="626.00" from="857732068#1" to="858340575"/>
    <trip id="314" depart="628.00" from="-238632237#0" to="-324391958#4"/>
    <trip id="315" depart="630.00" from="234723926" to="-557697315#0"/>
    <trip id="316" depart="632.00" from="-912547688#0" to="-235025106#0"/>
    <trip id="317" depart="634.00" from="234948641#10" to="1345243597#0"/>
    <trip id="318" depart="636.00" from="-902066520" to="454750347#3"/>
    <trip id="319" depart="638.00" from="233590628" to="-7667108#7"/>
    <trip id="320" depart="640.00" from="-24644770#1" to="881642153"/>
    <trip id="321" depart="642.00" from="-7325283#9" to="23012862"/>
    <trip id="322" depart="644.00" from="1214071153" to="7325283#12"/>
    <trip id="323" depart="646.00" from="-58946210" to="-23754871"/>
    <trip id="324" depart="648.00" from="8167757#0" to="306474593"/>
    <trip id="325" depart="650.00" from="1000633951" to="244089868#1"/>
    <trip id="326" depart="652.00" from="-24658610#1" to="233590816#21"/>
    <trip id="327" depart="654.00" from="327360466" to="-229662286"/>
    <trip id="328" depart="656.00" from="1146675382#0" to="-26773742"/>
    <trip id="329" depart="658.00" from="-232501685#0" to="321535693#4"/>
    <trip id="330" depart="660.00" from="797639453#1" to="26773708#2"/>
    <trip id="331" depart="662.00" from="321535688#1" to="-238369086#15"/>
    <trip id="332" depart="664.00" from="740113352#0" to="73553438#7"/>
    <trip id="333" depart="666.00" from="305186021" to="7325283#11"/>
    <trip id="334" depart="668.00" from="-239018526#0" to="1323437904#0"/>
    <trip id="335" depart="670.00" from="238492604#1" to="1214071140"/>
    <trip id="336" depart="672.00" from="233590816#13" to="237993312#13"/>
    <trip id="337" depart="674.00" from="1115060210" to="232474631#0"/>
    <trip id="338" depart="676.00" from="-31026710" to="598399543#0"/>
    <trip id="339" depart="678.00" from="232474631#1" to="24607944#17"/>
    <trip id="340" depart="680.00" from="234922927" to="-234108228#1"/>
    <trip id="341" depart="682.00" from="302047361#4" to="-234948641#11"/>
    <trip id="342" depart="684.00" from="677369385#2" to="-1014639677#4"/>
    <trip id="343" depart="686.00" from="358513446#0" to="929664860"/>
    <trip id="344" depart="688.00" from="23754870" to="-7726086#2"/>
    <trip id="345" depart="690.00" from="-326992558" to="725458481#1"/>
    <trip id="346" depart="692.00" from="686468681#5" to="-23600472#1"/>
    <trip id="347" depart="694.00" from="-60339265#4" to="1013511220"/>
    <trip id="348" depart="696.00" from="23600100#1" to="-238492604#0"/>
    <trip id="349" depart="698.00" from="232698723#1" to="1014639667#1"/>
    <trip id="350" depart="700.00" from="780976707#3" to="-207951212#1"/>
    <trip id="351" depart="702.00" from="-7662848" to="390627278#0"/>
    <trip id="352" depart="704.00" from="137535693#5" to="-24607944#4"/>
    <trip id="353" depart="706.00" from="23013023#0" to="-454750347#0"/>
    <trip id="354" depart="708.00" from="8010435#0" to="961390057#5"/>
    <trip id="355" depart="710.00" from="23903983#0" to="247994844#1"/>
    <trip id="356" depart="712.00" from="234108230#10" to="1214409796"/>
    <trip id="357" depart="714.00" from="-26770649#2" to="24675946"/>
    <trip id="358" depart="716.00" from="7664420" to="-24817978#1"/>
    <trip id="359" depart="718.00" from="234424760#1" to="-233903794#4"/>
    <trip id="360" depart="720.00" from="-24817976#2" to="-240434185#8"/>
    <trip id="361" depart="722.00" from="837846858#5" to="-5053198"/>
    <trip id="362" depart="724.00" from="97198913#1" to="24732631"/>
    <trip id="363" depart="726.00" from="140260110" to="-857860364"/>
    <trip id="364" depart="728.00" from="192283595" to="-8059954#0"/>
    <trip id="365" depart="730.00" from="23600472#0" to="-958261952"/>
    <trip id="366" depart="732.00" from="-207532546#1" to="-943572738"/>
    <trip id="367" depart="734.00" from="-234385363#2" to="1197784232#0"/>
    <trip id="368" depart="736.00" from="30473838#0" to="23012873#2"/>
    <trip id="369" depart="738.00" from="23600832#2" to="-238492604#7"/>
    <trip id="370" depart="740.00" from="23754116#1" to="24740505"/>
    <trip id="371" depart="742.00" from="-650539423" to="26925475#1"/>
    <trip id="372" depart="744.00" from="37049596#12" to="-23600826#1"/>
    <trip id="373" depart="746.00" from="310762177#8" to="-1014639667#0"/>
    <trip id="374" depart="748.00" from="-302047361#1" to="23600826#7"/>
    <trip id="375" depart="750.00" from="-1019190763" to="1214071150"/>
    <trip id="376" depart="752.00" from="234385363#2" to="8002854#2"/>
    <trip id="377" depart="754.00" from="24701372#2" to="233499678"/>
    <trip id="378" depart="756.00" from="224748890#2" to="-207375802#0"/>
    <trip id="379" depart="758.00" from="-233566295#4" to="1345243597#1"/>
    <trip id="380" depart="760.00" from="24817898#0" to="-24608160#0"/>
    <trip id="381" depart="762.00" from="-261715852#3" to="847323938"/>
    <trip id="382" depart="764.00" from="-238632237#0" to="-23205687#2"/>
    <trip id="383" depart="766.00" from="237993305#1" to="-306632777"/>
    <trip id="384" depart="768.00" from="-233590816#31" to="-239158420#1"/>
    <trip id="385" depart="770.00" from="1000633950" to="24607943#0"/>
    <trip id="386" depart="772.00" from="4045890" to="1197784232#0"/>
    <trip id="387" depart="774.00" from="888000766" to="306120870#6"/>
    <trip id="388" depart="776.00" from="30473845#1" to="260243240"/>
    <trip id="389" depart="778.00" from="-329490610" to="23600100#0"/>
    <trip id="390" depart="780.00" from="23012885#0" to="8166443#2"/>
    <trip id="391" depart="782.00" from="23600821#3" to="-23600833#2"/>
    <trip id="392" depart="784.00" from="-23904012" to="-25894061"/>
    <trip id="393" depart="786.00" from="-234376055" to="-233590816#37"/>
    <trip id="394" depart="788.00" from="-26770649#0" to="7667108#9"/>
    <trip id="395" depart="790.00" from="-24658601#1" to="30473850#5"/>
    <trip id="396" depart="792.00" from="912547695" to="-234521175"/>
    <trip id="397" depart="794.00" from="744937100" to="1014639670"/>
    <trip id="398" depart="796.00" from="8002857#0" to="900481864"/>
    <trip id="399" depart="798.00" from="8010639#3" to="30473842#0"/>
    <trip id="400" depart="800.00" from="-725458507" to="-235026486#5"/>
    <trip id="401" depart="802.00" from="173493914#7" to="-895933163#0"/>
    <trip id="402" depart="804.00" from="1214071795" to="-7667108#4"/>
    <trip id="403" depart="806.00" from="192289086" to="30473842#5"/>
    <trip id="404" depart="808.00" from="235025106#2" to="157285333#3"/>
    <trip id="405" depart="810.00" from="-24759142#1" to="-24608159#4"/>
    <trip id="406" depart="812.00" from="234385363#0" to="-208481005#5"/>
    <trip id="407" depart="814.00" from="163972455#2" to="-173450925#3"/>
    <trip id="408" depart="816.00" from="358513447" to="754976646#1"/>
    <trip id="409" depart="818.00" from="-454739498#1" to="-250201222"/>
    <trip id="410" depart="820.00" from="-24644770#5" to="-238369086#1"/>
    <trip id="411" depart="822.00" from="1014639669#1" to="-25626154"/>
    <trip id="412" depart="824.00" from="233252757" to="23600832#0"/>