<?xml version="1.0" encoding="UTF-8"?>

<!-- generated on 12/16/25 15:23:21 by Eclipse SUMO duarouter Version 1.5.0
<configuration xmlns:xsi="http://www.w3.org/2001/XMLSchema-instance" xsi:noNamespaceSchemaLocation="http://sumo.dlr.de/xsd/duarouterConfiguration.xsd">

    <input>
        <net-file value="pfaffenhofen.net.xml"/>
        <route-files value="trips.trips.xml"/>
    </input>

    <output>
        <output-file value="pfaffenhofen.trips.xml"/>
        <alternatives-output value="pfaffenhofen.trips.alt.xml"/>
    </output>

    <time>
        <begin value="0"/>
        <end value="3600.0"/>
    </time>

    <report>
        <no-warnings value="true"/>
        <ignore-errors value="true"/>
        <no-step-log value="true"/>
    </report>

</configuration>
-->

<routes xmlns:xsi="http://www.w3.org/2001/XMLSchema-instance" xsi:noNamespaceSchemaLocation="http://sumo.dlr.de/xsd/routes_file.xsd">
    <vehicle id="0" depart="0.00">
        <route edges="-4058873#2 -4058873#1 -4058873#0 -32860060#3 -32860060#2 -32860060#1 -32860060#0 -4058599#1 -4058599#0 -432776283 32860061 4244400 20473111 20473112#0 20473112#1 20473112#2 20473112#3 20473112#4 432728073 28153437 28153436#0 28153436#1 28153436#2 1107771810 656540044 1107943293 656540040 4242653 32910423#0 32910423#1 32910423#2 32910423#3 32910423#4 975299961 32910422#0 32910422#1 493211817#0 493211817#1 971954901 4242673#0 4242673#1 4242673#2 4242673#3 4242673#4 868080104#0 868080104#1 382422058#0 382422058#1 382422058#2 382422059 663848936 643192256 663848938 923860390 643192253 663849036#0 663849036#1 493211821 353893905 41494963 28182288 28182287#0 28182287#1 32860907#0 32860907#1 975299936 1457782078 1457782080 365344574#0 365344574#1 365344574#2 365344574#3 365344574#4 365344574#5 365344574#6 365344574#7 365344574#8 365344574#9 365344574#10 365344574#11 365344574#12 365344574#13 365344574#14 365344574#15 365344574#16 365344574#17 365344574#18 808655156 808655154#0 808655154#1 808655154#2 808655154#3 808654110 808654111#0 808654111#1 808654111#2 808654111#3 808654111#4 808654111#5 808654111#6 808654111#7 1220055189#0 1220055189#1 1220055190 1072274305#0 1072274305#1 1072274305#2 969232027 1072275584 378301236#0 378301236#1 378301236#2 944199025 944199024 378302292 385680134 385680136 502720241 502720240 8047509 412620335#0 412620335#1 650601172#0 650601172#1 412620334#0 412620334#1 1243397265 32862252 972020644 1107798376 38781870#0 38781870#1 715780253#0 715780253#1 715780253#2 715780253#3"/>
    </vehicle>
    <vehicle id="1" depart="2.00">
        <route edges="-524888142 -4792268#2 -4792268#1 -4792268#0 -505369902#2 -505369902#1 -505369902#0 -1004458452#1 -1004458452#0 -70669935#2 -70669935#1 -70669935#0 636527715#1 310768343 38322269 400016115 28157967#0 28157967#1 28157968 1107798374 738969450#0 738969450#1 738969450#2 738969450#3 738969450#4 662361738 975235484 738969451 957183468#0 957183468#1 957183468#2 4246383#0 4246383#1 824521477 32862010#0 32862010#1 957183469 944180337 944180335 1356952833 961567324#0 961567324#1 961567324#2 1447151994 392733763#0 396860256"/>
    </vehicle>
    <vehicle id="2" depart="4.00">
        <route edges="-4262586#4 -4262586#3 -4262586#2 -4262586#1 -4262586#0 4340418 -28301356 -28301355 -28301354 -1177311024#0"/>
    </vehicle>
    <vehicle id="3" depart="6.00">
        <route edges="-810324791#10 -810324791#9 -810324791#8 810324791#8 810324791#9 810324791#10 810324791#11 810324791#12 810324791#13 810324790#0 810324790#1 810324790#2 1356952832 -1356952833 -944180335 -944180337 -957183469 -32862010#1 -32862010#0 -824521477 -4246383#1 -4246383#0 -957183468#2 -957183468#1 -957183468#0 -738969451 972000062 -738969450#4 -738969450#3 -738969450#2 4265959#0 4265959#1 4265959#2 -227943565 -635581458 -635581459 -400016352 -1107798375 -1452352627 -4265960#2 -4265960#1 -4265960#0 -399934136 -399934134 -80438652#3 -80438652#2 -80438652#1 -80438652#0 650724632#0 650724632#1 4244337 80438654 989730063 -416947374#11 -416947374#10 -416947374#9 -416947374#8 -416947374#7 -416947374#6 -416947374#5 -416947374#4 -416947374#3 -416947374#2 -416947374#1 -416947374#0 -377214387#7 -377214387#6 -377214387#5 -377214387#4 -377214387#3 -377214387#2 -377214387#1 -1454633444#1 -1454633444#0 1107943294#0 32910222#0 32910222#1 32910222#2 32910222#3 32910222#4 32910222#5 -20123817 988699540#4 988699540#5 20123815#0 -20123815#0 -988699540#5 -988699540#4"/>
    </vehicle>
    <vehicle id="4" depart="8.00">
        <route edges="-738969449#0 975235484 738969451 957183468#0 957183468#1 957183468#2 4246383#0 4246383#1 824521477 -824521475 -957183466#2 -957183466#1 -957183466#0 -975299953#1 -21849681#3 21849681#3"/>
    </vehicle>
    <vehicle id="5" depart="10.00">
        <route edges="4324938#0 4324938#1 4324938#2 -32861996#1 -32861996#0 -993297252#1 -993297252#0 -508497825 -508497826 -4445593#10 -4445593#9 -4445593#8 -4445593#7 -4445593#4 -4445593#3 -4445593#2 -4445593#1 -4445593#0 -1192929462#1 -1192929462#0 -32860057#8 -32860057#7 -32860057#6 -32860057#5 -32860057#4 -32860057#3 -32860057#2 -32860057#1 -32860057#0 -989730063 -80438654 1107748564 -1117522430#1 -70669932#4 -70669932#3 -70669932#2 -70669932#1 -70669932#0 -70669939#6 -70669939#5 -70669939#4 -70669939#3 -70669939#2 -70669939#1 -70669939#0 -42699542#2"/>
    </vehicle>
    <vehicle id="6" depart="12.00">
        <route edges="-378307494#3 -378307494#2 -378307494#1 -378307494#0 -4246345#6 -4246345#5 -4246345#4 -4246345#3 -4246345#2 -4246345#1 -4246345#0 4246344 679500835 -453038775#1 -453038775#0 -1458705002 -1458705001#1 -1458705001#0 1219725444 -1107798378 1108513523#0 1108513523#1 -367435399#3 -367435399#2 -367435399#1 -367435399#0 367435397 -32862009#1 -32862009#0 -1052437851 -392733763#1 -392733763#0 -1447151994 -961567324#2 -961567324#1 -961567324#0 -1356952833 -944180335 -944180337 -957183469 -32862010#1 -32862010#0 -824521477 -4246383#1 -4246383#0 -957183468#2 -957183468#1 -957183468#0 -738969451 972000062 -738969450#4 -738969450#3 -738969450#2 4265959#0 4265959#1 4265959#2 -227943565 -635581458 -635581459 -400016352 -1107798375 -1452352627 -4265960#2 -4265960#1 -4265960#0 -399934136 -399934134 -80438652#3 -80438652#2 -80438652#1 -80438652#0 650724632#0 650724632#1 4244337 80438654 989730063 -416947374#11 -416947374#10 -416947374#9 -416947374#8 -416947374#7 -416947374#6 -416947374#5 -416947374#4 -416947374#3 -416947374#2 -416947374#1 -416947374#0 28304207#0 28304207#1"/>
    </vehicle>
    <vehicle id="7" depart="14.00">
        <route edges="4792341 1054730320 1194880566 32860040 1147341674 1147341676 433334516 32860044 28153489#0 28153489#1 41495400#0 41495400#1 41495400#2 41495400#3 41495400#4 28158464 972058834 28158465 127930365#0 127930365#1 1153722662#0 1153722662#1 1153722662#2 1153722662#3 4262649#0 4262649#1 4262649#2 4262649#3 4262649#4 4262649#5 4262649#6 398905441 -824521474 -32862004#1 -32862004#0 -957183465 -824521475 -957183466#2 -957183466#1 -957183466#0 -975299953#1 -975299953#0 -416917285#4 -416917285#3 -416917285#2 -416917285#0 -957183467 -1072274305#2 -1072274305#1 -1072274305#0 -1220055190 -1220055189#1 -1220055189#0 -808654111#7 -808654111#6 -808654111#5 -808654111#4 -808654111#3 -808654111#2 -808654111#1 -808654111#0 -808654110 -808655154#3 -808655154#2 -808655154#1 -808655154#0 -808655156 -365344574#18 -365344574#17 -365344574#16 -365344574#15 -365344574#14 -365344574#13 -365344574#12 -365344574#11 -365344574#10 -365344574#9 -365344574#8 -365344574#7 -365344574#6 -365344574#5 -365344574#4 -365344574#3 -365344574#2 -365344574#1 -365344574#0 -1457782080 -1457782078 -975299936 -32860907#1 -32860907#0 -28182287#1 -28182287#0 -28182288 -41494963 -353893905 -493211821 -663849036#1 -663849036#0 -643192253 -923860390 -663848938 -643192256 -663848936 -382422059 -382422058#2 -382422058#1 -382422058#0 370582494 370582496 -1229963031 -24620464#1 -24620464#0 -24620462 -398558155 -398558156 -152830601#1 -152830601#0 -42426659#1 -42426659#0 4795910 41494856 28636892 28636891#0 28636891#1"/>
    </vehicle>
    <vehicle id="8" depart="16.00">
        <route edges="989730063 -416947374#11 -416947374#10 -416947374#9 -416947374#8 -416947374#7 -416947374#6 -416947374#5 -416947374#4 -416947374#3 -416947374#2 -416947374#1 -416947374#0 -377214387#7 -377214387#6 -377214387#5 -377214387#4 -377214387#3 -377214387#2 -377214387#1 -1454633444#1 -1454633444#0 1107943294#0 1107943294#1 -377214386#2 -377214386#1 -377214386#0 -972075697#2 -972075697#1 -972075697#0 -4242384#2 -4242384#1 -4242384#0 -989178059 -944268743 -944268742 -432776284 -32860058#1 -32860058#0 -4058280#1 4058280#1"/>
    </vehicle>
    <vehicle id="9" depart="18.00">
        <route edges="-650601172#1 -650601172#0 -412620335#1 -412620335#0 -8047509 -502720240 -502720241 -385680136 -385680134 -378302292 -944199024 -944199025 -378301236#2 -378301236#1 -378301236#0 -1072275584 -969232027 957183467 416917285#0 416917285#2 416917285#3 416917285#4 975299953#0 975299953#1 957183466#0 957183466#1 957183466#2 824521475 957183465 32862004#0 32862004#1 824521474 -398905441 -4262649#6 -4262649#5 -4262649#4 -4262649#3 -4262649#2 -4262649#1 -4262649#0 -1153722662#3 -1153722662#2 -1153722662#1 -1153722662#0 -127930365#1 -127930365#0 -28158465 -972058834 -28158464 -41495400#4 -41495400#3 -41495400#2 -41495400#1 -41495400#0 -28153489#1 -28153489#0 -32860044 -433334516 -1147341676 -433334517 -1153716102#1 -1153716102#0 -1153716100 -1153716103 -1153718996 -28153485#1 -28153485#0 -376962942 -942127023 -376962747 -377484507 -28153475 -28565857 -28565858 -433334261#1 -433334261#0 -944269841 -4242433#2 -4242433#1 -4242433#0 433334259#0 433334259#1 433334259#2 433334259#3"/>
    </vehicle>
    <vehicle id="10" depart="20.00">
        <route edges="-237184046#0 -897084638 -32860892#3 -32860892#2 -32860892#1 -32860892#0 -1174606706#2 -1174606706#1 -1174606706#0 -376953271#3 -376953271#2 -376953271#1 -376953271#0 -4244308#3 -4244308#2 -4244308#1 -4244308#0 -433334258 371148676 -433334256 -4242426#1 -4242426#0 244183000 244182999#0 244182999#1 923863121 244182994 -28153464#1 -28153464#0 -944852671#1 -944852671#0 -944852672 -4242398 -32860061 -4242278#1 -4242278#0 -989179209 -432776284 -32860058#1 -32860058#0 -4058280#1 -4058280#0 4475468#0 4475468#1 1107819420 1107819421#0 1107819421#1 1107819421#2 1107819421#3 1107819421#4 1107819421#5 1107819421#6 1107819421#7 432777221 400723817#0 400723817#1 400723817#2 400723817#3 400723817#4 400723817#5 400723817#6 400723817#7 -99399227 492193234 1202020934#0 1202020934#1 1202020934#2 32881957#0 32881957#1 32881957#2 32881957#3 32881957#4 975235485 508782613#0 508782613#1 508782613#2 32881958#0 32881958#1 32881958#2 32881958#3 32881958#4 161593041 8466832#0 8466832#1 8466832#2 975235489#0 975235489#1 -975235489#1"/>
    </vehicle>
    <vehicle id="11" depart="22.00">
        <route edges="1193127305 -1193127305 -4967333#1 -4967333#0 -4967331#3 -4967331#2 -4967331#1 -4967331#0 -1193127357#2 -1193127357#0 -400222987 -400222988 -377484507 -28153475 -28565857 -28565858 -433334261#1 -433334261#0 -944269841 -4242433#2 -4242433#1 -4242433#0 433334259#0 433334259#1 433334259#2 433334259#3 433334258 4244308#0 4244308#1 4244308#2 4244308#3 4267619#0 -28168447 -1174603686 -1174603685 946576829#1"/>
    </vehicle>
    <vehicle id="12" depart="24.00">
        <route edges="28565852#1 -4272718#5 -4272718#4 -4272718#3 -4272718#2 -4272718#1 -4272718#0 41495400#0 41495400#1 41495400#2 41495400#3 41495400#4 28158464 972058834 28158465 127930365#0 127930365#1 1153722662#0 1153722662#1 1153722662#2 1153722662#3 4262649#0 4262649#1 4262649#2 4262649#3 4262649#4 4262649#5 4262649#6 398905441 -824521474 -32862004#1 -32862004#0 -957183465 -824521475 -957183466#2 -957183466#1 -957183466#0 -975299953#1 -975299953#0 -416917285#4 -416917285#3 -416917285#2 -416917285#0 -957183467 969232027 1072275584 378301236#0 378301236#1 378301236#2 944199025 944199024 378302292 385680134 385680136 1452383248 4791932#0 4791932#1 856221762#0 856221762#1 856221762#2 1229876214 4791950#0 4791950#1 -398556876 -32862255 -152830599#4 152830599#4"/>
    </vehicle>
    <vehicle id="13" depart="26.00">
        <route edges="21826694#0 21826694#1 21826694#2 -1175918798#3 -1175918798#2 -1175918798#1 -1175918798#0 -32862008 -21824179 -21821741#5 -21821741#4 -21821741#3 -21821741#2 -21821741#1 -21821741#0 -945539823 1108513521 1054727711 1107798378 -652347044 -652323468#2 652347030 1037418165#0 1037418165#1 1135923104 -652347032#4 -652347032#3 -652347032#2 -652347032#1 -652347032#0"/>
    </vehicle>
    <vehicle id="14" depart="28.00">
        <route edges="-34047984#2 -34047984#1 -34047984#0 122622927#1 23340978 152830600#0 152830600#1 152830600#2 152830600#4 152830600#5 -28636891#1 -28636891#0 -28636892 -41494856 -4795910 42426659#0 42426659#1 152830601#0 152830601#1 398558156 398558155 24620462 24620464#0 24620464#1 1229963031 382422060 370582499#0 370582499#1 382422058#0 382422058#1 382422058#2 382422059 663848936 643192256 663848938 923860390 643192253 663849036#0 663849036#1 493211821 353893905 41494963 28182288 28182287#0 28182287#1 32860907#0 32860907#1 975299936 1457782078 1457782080 365344574#0 365344574#1 365344574#2 365344574#3 365344574#4 365344574#5 365344574#6 365344574#7 365344574#8 365344574#9 365344574#10 365344574#11 365344574#12 365344574#13 365344574#14 365344574#15 365344574#16 365344574#17 365344574#18 808655156 808655154#0 808655154#1 808655154#2 808655154#3 808654110 808654111#0 808654111#1 808654111#2 808654111#3 808654111#4 808654111#5 808654111#6 808654111#7 1220055189#0 1220055189#1 1220055190 1072274305#0 1072274305#1 1072274305#2 957183467 416917285#0 416917285#2 416917285#3 416917285#4 975299953#0 975299953#1 957183466#0 957183466#1 957183466#2 824521475 957183465 32862004#0 32862004#1 824521474 -398905441 -4262649#6 -4262649#5 -4262649#4 -4262649#3 -4262649#2 -4262649#1 -4262649#0 -1153722662#3 -1153722662#2 -1153722662#1 -1153722662#0 -127930365#1 -127930365#0 -28158465 -972058834"/>
    </vehicle>
    <vehicle id="15" depart="30.00">
        <route edges="32882022#0 32882022#1 -32882047 -975235485 -32881957#4 -32881957#3 -32881957#2 -32881957#1 -32881957#0 -1202020934#2 -1202020934#1 -1202020934#0 -492193234 99399227 -400723817#7 -400723817#6 -400723817#5 -400723817#4 -400723817#3 -400723817#2 -400723817#1 -400723817#0 -432777221 -1107819421#7 -1107819421#6 -1107819421#5 -1107819421#4 -1107819421#3 -1107819421#2 -1107819421#1 -1107819421#0 -1107819420 -4475468#1 -4475468#0 4058280#0 4058280#1 32860058#0 32860058#1 432776284 989179209 4242278#0 4242278#1 32860061 4242398 944852672 944852671#0 944852671#1 28153464#0 28153464#1 244182998 1107819416 923863118 244182996 4242426#0 4242426#1 433334256 433334257#0 433334257#1 4242433#0 4242433#1 4242433#2 944269841 433334261#0 433334261#1 28565858 28565857 28153475 377484507 376962747 942127023 376962942 28153485#0 28335475#0 28335475#1 28335475#2 -28335475#2 -28335475#1"/>
    </vehicle>
    <vehicle id="16" depart="32.00">
        <route edges="843401123#7 -843401123#7 -843401123#6 -843401123#5 -843401121 1153716097 -1153718996 -28153485#1 -28153485#0 -376962942 -942127023 -376962747 -377484507 -28153475 -28565857 -28565858 -433334261#1 -433334261#0 -944269841 -4242433#2 -4242433#1 -4242433#0 -433334257#1 -433334257#0 -433334256 -4242426#1 -4242426#0 244183000 244182999#0 244182999#1 923863121 244182994 -28153464#1 -28153464#0 -944852671#1 -944852671#0 -944852672 -4242398 -32860061 -4242278#1 -4242278#0 -989179209 -432776284 -32860058#1 -32860058#0 -4058280#1 -4058280#0 4475468#0 4475468#1 1107819420 1107819421#0 1107819421#1 1107819421#2 1107819421#3 1107819421#4 1107819421#5 1107819421#6 1107819421#7 432777227 1202020228#0 1202020228#1 432778604 28536301#0 28536301#1 28536301#2 28536301#3 -492190764 -975235482#2 -975235482#1 -975235482#0 -193663134#2 -193663134#1"/>
    </vehicle>
    <vehicle id="17" depart="34.00">
        <route edges="-22735154#2 -22735154#1 -22735154#0 22735154#0 22735154#1 22735154#2 22735154#3 22735154#4 22735154#5 1004458454#0 1004458454#1 1004458454#2 1004458454#3 1004458454#4 4262587#0 4262587#1 4262587#2 4262587#3 650601176#0 650601176#1 334712899 1053281775 -432728074 -32862001#8 -32862001#6 -32862001#5 -32862001#4 -32862001#3 -32862001#2 -32862001#1 -32862001#0 -1177972529#9 -1177972529#8 -1177972529#7 -1177972529#6 -1177972529#5 -1177972529#4 -1177972529#3 -1177972529#2 -1177972529#1 -1177972529#0 -334712898#1 -334712898#0 -1107748563 -993270782 -988686067#1 -988686067#0 -32861998#3 -32861998#2 -32861998#1 -32861998#0 -28310540 -432728073 -20473112#4 -20473112#3 -20473112#2 -20473112#1 -20473112#0 -20473111 -4244400 -32860061 -4242278#1 -4242278#0 -989179209 -432776284 -32860058#1 -32860058#0 -4058280#1 -4058280#0 -972075705 -4242351#1 -4242351#0 -152830325 -152830333#3 -152830333#2 -152830333#1 -152830333#0 -1107819418 -152830322#1 -152830322#0 -152830327 -57865809#1 -57865809#0 -152830331 -152830329 -22414325#2 -22414325#1 -22414325#0 -400723816 -22414324 -152830334#1 -152830334#0 -22414323#4 -22414323#3 -22414323#2 -22414323#1 -22414323#0 -400723818 -52832176#2 -52832176#1 -52832176#0 432780899#0"/>
    </vehicle>
    <vehicle id="18" depart="36.00">
        <route edges="4818782#12 4818782#13 -4818782#13 -4818782#12 -4818782#11 -4818782#10 -4818782#9 -4818782#8 -4818782#7 -4818782#6 -4818782#5 -4818782#4 -4818782#3 -4818782#2 -4818782#1 -4818782#0 -945014444 -1447151994 -961567324#2 -961567324#1 -961567324#0 -1356952833 -944180335 -944180337 -957183469 -32862010#1 -32862010#0 957183465 32862004#0 32862004#1 824521474 -398905441 -4262649#6 -4262649#5 -4262649#4 -4262649#3 -4262649#2 -4262649#1 -4262649#0 -1153722662#3 -1153722662#2 -1153722662#1 -1153722662#0 -127930365#1 -127930365#0 -28158465 -972058834 -28158464 -41495400#4 -41495400#3 -41495400#2 -41495400#1 -41495400#0 -28153489#1 -28153489#0 -32860044 -433334516 -1147341676 -433334517 -1153716102#1 -1153716102#0 -1153716100 -1153716103 -1153718996 -28153485#1 -28153485#0 -376962942 -942127023 -376962747 -377484507 -28153475 -28565857 -28565858 -433334261#1 -433334261#0 -944269841 -4242433#2 -4242433#1 -4242433#0 -433334257#1 -433334257#0 -433334256 -4242426#1 -4242426#0 244183000 244182999#0 244182999#1 923863121 244182994 -28153464#1 -28153464#0 -944852671#1 -944852671#0 -944852672 -4242398 -32860061 -4242278#1 -4242278#0 -989179209 -432776284 -32860058#1 -32860058#0 -4058280#1 -4058280#0 -972075705 -4242351#1 -4242351#0 -152830325 -152830333#3 -152830333#2 -152830333#1 -152830333#0 -1107819418 -152830322#1 -152830322#0 -152830327 -57865809#1 -57865809#0 -152830331 -152830329 -22414325#2 -22414325#1 -22414325#0 -400723816 -22414324 -152830334#1 -152830334#0 -22414323#4 -22414323#3 -22414323#2 -22414323#1 -22414323#0 -400723818 -22414176 -22414259#4 -22414259#3 -22414259#2 -22414259#1 -22414259#0 -51364905 -22414270#1 -22414270#0"/>
    </vehicle>
    <vehicle id="19" depart="38.00">
        <route edges="1110354804 160959001 42426659#0 42426659#1 152830601#0 152830601#1 398558156 398558155 24620462 24620464#0 24620464#1 1229963031 382422060 370582499#0 370582499#1 -868080104#1 -868080104#0 -4242673#4 -4242673#3 -4242673#2 -4242673#1 -4242673#0 -971954901 -493211817#1 -493211817#0 -32910422#1 -32910422#0 -975299961 -32910423#4 -32910423#3 -32910423#2 -32910423#1 -32910423#0 -4242653 -656540040 1107943292 656540042#0 656540042#1 -656540044 -1107771810 -28153436#2 -28153436#1 -28153436#0 -28153437 28310540 -377214385 -32910222#8 -32910222#7 -32910222#6 -32910222#5 -32910222#4 -32910222#3 -32910222#2 -32910222#1 -32910222#0 1107943294#1 625734683 1454633442#0 1454633442#1 1454633441 1454633444#0 1454633444#1 377214387#1 377214387#2 377214387#3 -377214387#3 -377214387#2 -377214387#1"/>
    </vehicle>
    <vehicle id="20" depart="40.00">
        <route edges="210564310#7 4273049#6 4273049#7 1107771810 656540044 1107943293 656540040 4242653 32910423#0 32910423#1 32910423#2 32910423#3 32910423#4 975299961 32910422#0 32910422#1 493211817#0 493211817#1 971954901 4242673#0 4242673#1 4242673#2 4242673#3 4242673#4 868080104#0 868080104#1 382422058#0 382422058#1 382422058#2 382422059 663848936 643192256 663848938 923860390 643192253 663849036#0 663849036#1 493211821 353893905 41494963 28182288 28182287#0 28182287#1 32860907#0 32860907#1 975299936 1457782078 1457782080 365344574#0 365344574#1 365344574#2 365344574#3 365344574#4 365344574#5 365344574#6 365344574#7 365344574#8 365344574#9 365344574#10 365344574#11 365344574#12 365344574#13 365344574#14 365344574#15 365344574#16 365344574#17 365344574#18 808655156 808655154#0 808655154#1 808655154#2 808655154#3 808654110 808654111#0 808654111#1 808654111#2 808654111#3 808654111#4 808654111#5 808654111#6 808654111#7 1220055189#0 1220055189#1 1220055190 1072274305#0 1072274305#1 1072274305#2 969232027 1072275584 378301236#0 378301236#1 378301236#2 944199025 944199024 378302292 385680134 385680136 502720241 502720240 8047509 412620335#0 412620335#1 650601172#0 650601172#1 412620334#0 412620334#1 1243397265 32862252 972020644 1107798376 38781870#0 38781870#1 715780253#0 715780253#1 715780253#2 715780253#3 715780253#4 715780253#5 715780253#6 715780253#7 715780253#8 715780253#9 715780253#10 715780253#11 715780253#12 715780253#13 715780253#14 715780253#15 715780253#16 715780253#17 715780253#18 715780253#19 715780253#20 376971208 637765903#0 637765903#1 1107798361 -581538935#5 -581538935#4 -581538935#3 -581538935#2 -581538935#1 -581538935#0 -591002975#1 -591002975#0 -637769326 23679191#0 23679191#1 58737262#0 58737262#1 58737262#2 58737262#3 58737256 -58737258#1 -58737258#0 -23679190 23679190 58737258#0"/>
    </vehicle>
    <vehicle id="21" depart="42.00">
        <route edges="23010784#1 -4058527 -32860060#5 -32860060#4 -32860060#3 -32860060#2 -32860060#1 -32860060#0 -4058599#1 -4058599#0 -432776283 32860061 4244400 20473111 20473112#0 20473112#1 20473112#2 20473112#3 20473112#4 432728073 28153437 28153436#0 28153436#1 28153436#2 1107771810 656540044 1107943293 656540040 4242653 32910423#0 32910423#1 32910423#2 32910423#3 32910423#4 975299961 32910422#0 32910422#1 493211817#0 493211817#1 971954901"/>
    </vehicle>
    <vehicle id="22" depart="44.00">
        <route edges="944852671#0 944852671#1 28153464#0 28153464#1 244182998 1107819416 923863118 923863119 244182999#0 244183001 4254216#0 4254216#1 1256099095 108964557#0 108964557#1 28168527 376952289#1 376952289#2 4264694 4264700 1053281774 -32885858#2 22649945 4345109 4254223#1 -4345110"/>
    </vehicle>
    <vehicle id="23" depart="46.00">
        <route edges="-27284457#4 -27284457#3 -27284457#2 -27284457#1 -27284457#0 32860046#1 433334515 -1147341676 -433334517 -1153716102#1 -1153716102#0 -1153716100 -1153716103 -1153718996 -28153485#1 -28153485#0 -376962942 -942127023 -376962747 -377484507 -28153475 -28565857 -28565858 -433334261#1 -433334261#0 -944269841 -4242433#2 -4242433#1 -4242433#0 -433334257#1 -433334257#0 -433334256 -4242426#1 -4242426#0 244183000 244182999#0 244182999#1 923863121 244182994 -28153464#1 -28153464#0 -944852671#1 -944852671#0 -944852672 -4242398 -32860061 -4242278#1 -4242278#0 -989179209 -432776284 -32860058#1 -32860058#0 -4058280#1 -4058280#0 4475468#0 4475468#1 1107819420 1107819421#0 1107819421#1 1107819421#2 1107819421#3 1107819421#4 1107819421#5 1107819421#6 1107819421#7 432777227 1202020228#0 1202020228#1 432778604 28536301#0 28536301#1 28536301#2 28536301#3 -492190764 -975235482#2 -975235482#1 -975235482#0 -193663134#2 -193663134#1 -193663134#0 -28536228#3 -28536228#2 -28536228#1 -28536228#0 -57857932 57857932 28536228#0 28536228#1 28536228#2 28536228#3 193663134#0"/>
    </vehicle>
    <vehicle id="24" depart="48.00">
        <route edges="-27015028 122622927#0 122622927#1 23340978 152830600#0 152830600#1 152830600#2 152830600#4 152830600#5 -28636891#1 -28636891#0 -28636892 -41494856 -4795910 42426659#0 42426659#1 152830601#0 152830601#1 398558156 398558155 24620462 24620464#0 24620464#1 1229963031 382422060 370582499#0 370582499#1 -868080104#1 -868080104#0 -4242673#4 -4242673#3 -4242673#2 -4242673#1 -4242673#0 -971954901 -493211817#1 -493211817#0 -32910422#1 -32910422#0 -975299961 -32910423#4 -32910423#3 -32910423#2 -32910423#1 -32910423#0 -4242653 -656540040 1107943292 656540042#0 656540042#1 -656540044 -1107771810 -28153436#2 -28153436#1 -28153436#0 -28153437 -432728073 -20473112#4 -20473112#3 -20473112#2 -20473112#1 -20473112#0 -20473111 -4244400 -32860061 432776283 4058599#0 -4058448#5 -4058448#4 -4058448#3 -4058448#2 -4058448#1 -4058448#0"/>
    </vehicle>
    <vehicle id="25" depart="50.00">
        <route edges="-378293339#0 378293339#0 378293339#1 378293339#2 1195266633 1241312070 -376971207 -1195266635 -1107798361 -637765903#1 -637765903#0 364089888 1246307122#0 1246307122#1 -715780253#20 -715780253#19 -715780253#18 -715780253#17 -715780253#16 -715780253#15 -715780253#14 -715780253#13 -715780253#12 -715780253#11 -715780253#10 -715780253#9 -715780253#8 -715780253#7 -715780253#6 -715780253#5 -715780253#4 -715780253#3 -715780253#2 -715780253#1 -715780253#0 -38781870#1 -38781870#0 4242740 -32862252 -1243397265 -412620334#1 -412620334#0 -650601172#1 -650601172#0 -412620335#1 -412620335#0 -8047509 -502720240 -502720241 -385680136 -385680134 -378302292 -944199024 -944199025 -378301236#2 -378301236#1 -378301236#0 -1072275584 -969232027 -1072274305#2 -1072274305#1 -1072274305#0 -1220055190 -1220055189#1 -1220055189#0 -808654111#7 -808654111#6 -808654111#5 -808654111#4 -808654111#3 -808654111#2 -808654111#1 -808654111#0 -808654110 -808655154#3 -808655154#2 -808655154#1 -808655154#0 -808655156 -365344574#18 -365344574#17 -365344574#16 -365344574#15 -365344574#14 -365344574#13 -365344574#12 -365344574#11 -365344574#10 -365344574#9 -365344574#8 -365344574#7 -365344574#6 -365344574#5 -365344574#4 -365344574#3 -365344574#2 -365344574#1 -365344574#0 -1457782080 -1457782078 -975299936 -32860907#1 -32860907#0 -28182287#1 -28182287#0 -28182288 -41494963 -353893905 -493211821 -663849036#1 -663849036#0 -643192253 -923860390 -663848938 -643192256 -663848936 -382422059 -382422058#2 -382422058#1 -382422058#0 -868080104#1 -868080104#0 -4242673#4 -4242673#3 -4242673#2 -4242673#1 -4242673#0 -971954901 -493211817#1 -493211817#0 -32910422#1 -32910422#0 -975299961 -32910423#4 -32910423#3 -32910423#2 -32910423#1 -32910423#0 -4242653 -656540040 1107943292 656540042#0 656540042#1 -656540044 -1107771810 -4273049#7 -4273049#6 -210564310#7"/>
    </vehicle>
    <vehicle id="26" depart="52.00">
        <route edges="21639281#0 21639281#1 -372317038#3 -372317038#2 -372317038#1 -372317038#0 21639288 376962942 28153485#0 28153485#1 1153718996 1153716103 1153716100 1153716102#0 1153716102#1 433334517 1147341676 433334516 32860044 28153489#0 28153489#1 41495400#0 41495400#1 41495400#2 41495400#3 41495400#4 28158464 972058834 28158465 127930365#0 127930365#1 1153722662#0 1153722662#1 1153722662#2 1153722662#3 4262649#0 4262649#1 4262649#2 4262649#3 4262649#4 4262649#5 4262649#6 398905441 -824521474 -32862004#1 -32862004#0 -957183465 32862010#0 32862010#1 957183469 944180337 944180335 1356952833 961567324#0 961567324#1 961567324#2 1447151994 392733763#0 392733763#1 1052437851 32862009#0 32862009#1 367435398 367435399#0 367435399#1 367435399#2 367435399#3 1108513522 1108513521 1054727711 1107798378 1219725449 1458705001#0 1458705001#1 1458705002 453038775#0 453038775#1 1054727710 1054727708#0 1054727708#1 1107798377 1054727709 4246345#0 4246345#1 4246345#2 4246345#3 4246345#4 4246345#5 4246345#6 378307494#0 378307494#1 378307494#2 378307494#3 378307494#4 378307494#5"/>
    </vehicle>
    <vehicle id="27" depart="54.00">
        <route edges="715780253#19 715780253#20 376971208 637765903#0 637765903#1 1107798361 -1107798361 -637765903#1 -637765903#0 364089888 1246307122#0 1246307122#1 -715780253#20 -715780253#19 -715780253#18 -715780253#17 -715780253#16 -715780253#15 -715780253#14 -715780253#13 -715780253#12 -715780253#11 -715780253#10 -715780253#9 -715780253#8 -715780253#7 -715780253#6 -715780253#5 -715780253#4 -715780253#3 -715780253#2 -715780253#1 -715780253#0 -38781870#1 -38781870#0 4242740 -32862252 -1243397265 -412620334#1 -412620334#0 -650601172#1 -650601172#0 -412620335#1 -412620335#0 -8047509 -502720240 -502720241 1452383248 4791932#0 4791932#1 856221762#0 856221762#1 856221762#2 1229876214 4791950#0 4791950#1 -398556876 -32862255 -152830599#4 -152830599#3 -152830599#2 -372598354#2 -372598354#1 -372598354#0 -944247061 -944247059 28579996 -152830601#1 -152830601#0 -42426659#1 -42426659#0 4795910 41494856 28636892 28636891#0 28636891#1 -28636891#1 -28636891#0 -28636892"/>
    </vehicle>
    <vehicle id="28" depart="56.00">