<?xml version="1.0" encoding="UTF-8"?>

<!-- generated on 12/16/25 15:23:04 by Eclipse SUMO polyconvert Version 1.5.0
<configuration xmlns:xsi="http://www.w3.org/2001/XMLSchema-instance" xsi:noNamespaceSchemaLocation="http://sumo.dlr.de/xsd/polyconvertConfiguration.xsd">

    <input>
        <net-file value="pfaffenhofen.net.xml"/>
        <osm-files value="pfaffenhofen_raw.osm"/>
    </input>

    <output>
        <output-file value="pfaffenhofen.poly.xml"/>
    </output>

    <processing>
        <poi-layer-offset value="5"/>
    </processing>

</configuration>
-->

<additional xmlns:xsi="http://www.w3.org/2001/XMLSchema-instance" xsi:noNamespaceSchemaLocation="http://sumo.dlr.de/xsd/additional_file.xsd">
    <location netOffset="-676945.06,-5375764.46" convBoundary="-1222.84,0.00,14454.08,9755.02" origBoundary="11.381288,48.508260,11.592607,48.597170" projParameter="+proj=utm +zone=32 +ellps=WGS84 +datum=WGS84 +units=m +no_defs"/>

    <poly id="1000919154" type="building" color="255,230,230" fill="1" layer="-1.00" shape="7172.477632,3197.530485 7174.760883,3204.091584 7176.969945,3209.982692 7187.168706,3206.521609 7182.878239,3193.998099 7172.477632,3197.530485"/>
    <poly id="1000919155" type="building" color="255,230,230" fill="1" layer="-1.00" shape="7170.465320,3221.374962 7165.314260,3207.599493 7174.760883,3204.091584 7176.969945,3209.982692 7179.912287,3217.855947 7170.465320,3221.374962"/>
    <poly id="1000919156" type="building" color="255,230,230" fill="1" layer="-1.00" shape="7177.810962,3254.837541 7172.846544,3241.457571 7182.808207,3237.788473 7185.408682,3244.137411 7187.982175,3251.086283 7177.810962,3254.837541"/>
    <poly id="1000919157" type="building" color="255,230,230" fill="1" layer="-1.00" shape="7180.836702,3232.995483 7182.808207,3237.788473 7185.408682,3244.137411 7195.855307,3239.872227 7191.283343,3228.730290 7180.836702,3232.995483"/>
    <poly id="1000919158" type="building" color="255,230,230" fill="1" layer="-1.00" shape="7181.499631,3274.250764 7186.352422,3286.748132 7196.716454,3282.747286 7194.003841,3275.760487 7191.863681,3270.249909 7181.499631,3274.250764"/>
    <poly id="1000919159" type="building" color="255,230,230" fill="1" layer="-1.00" shape="7194.003841,3275.760487 7203.355874,3272.205037 7199.047006,3260.927041 7189.612680,3264.513190 7191.863681,3270.249909 7194.003841,3275.760487"/>
    <poly id="1000919160" type="building" color="255,230,230" fill="1" layer="-1.00" shape="7202.359207,3321.739663 7196.766472,3309.729923 7206.624214,3305.167384 7209.158069,3310.612940 7212.216934,3317.177134 7202.359207,3321.739663"/>
    <poly id="1000919161" type="building" color="255,230,230" fill="1" layer="-1.00" shape="7209.158069,3310.612940 7218.596804,3305.758586 7213.084558,3295.131104 7203.690459,3299.975800 7206.624214,3305.167384 7209.158069,3310.612940"/>
    <poly id="1000919390" type="building" color="255,230,230" fill="1" layer="-1.00" shape="7232.080417,3373.434463 7238.663473,3384.074689 7247.063127,3378.908298 7242.667574,3371.421457 7240.758249,3368.121380 7232.080417,3373.434463"/>
    <poly id="1000919391" type="building" color="255,230,230" fill="1" layer="-1.00" shape="7242.667574,3371.421457 7250.920602,3366.673078 7245.227718,3356.829617 7236.974681,3361.578005 7240.758249,3368.121380 7242.667574,3371.421457"/>
    <poly id="1000919628" type="building" color="255,230,230" fill="1" layer="-1.00" shape="7218.860384,3352.219037 7213.715178,3341.892818 7223.298217,3337.143321 7225.568019,3341.623412 7228.533433,3347.427984 7218.860384,3352.219037"/>
    <poly id="1000919629" type="building" color="255,230,230" fill="1" layer="-1.00" shape="7225.568019,3341.623412 7233.598562,3337.579817 7228.648899,3327.827405 7220.618348,3331.871007 7223.298217,3337.143321 7225.568019,3341.623412"/>
    <poly id="100649658" type="building" color="255,230,230" fill="1" layer="-1.00" shape="6973.864375,945.362371 6977.997706,945.775213 6985.851593,946.565200 6987.279232,932.470434 6975.292346,931.256488 6973.864375,945.362371"/>
    <poly id="100649660" type="building" color="255,230,230" fill="1" layer="-1.00" shape="7028.883660,1006.746964 7040.412825,1004.764042 7038.515077,993.820834 7033.356253,994.709653 7032.976483,992.527680 7026.613139,993.633143 7028.883660,1006.746964"/>
    <poly id="100649663" type="building" color="255,230,230" fill="1" layer="-1.00" shape="7017.599242,944.751585 7029.837234,945.517636 7030.478842,935.358151 7018.233806,934.580744 7018.094538,936.812555 7017.648200,943.929848 7017.599242,944.751585"/>
    <poly id="100649664" type="building" color="255,230,230" fill="1" layer="-1.00" shape="6997.036768,1013.430501 7005.234258,1011.839604 7008.224661,1011.258374 7008.046892,1010.362491 7006.691698,1003.409004 6995.503428,1005.592248 6997.036768,1013.430501"/>
    <poly id="1026407032" type="building" color="255,230,230" fill="1" layer="-1.00" shape="7675.263510,1093.008345 7681.983145,1073.557043 7640.698976,1059.367073 7633.979473,1078.818421 7675.263510,1093.008345"/>
    <poly id="1029846644" type="building" color="255,230,230" fill="1" layer="-1.00" shape="9256.901942,2472.212640 9258.681041,2476.076592 9252.558281,2478.878637 9250.779178,2475.014687 9253.502866,2473.769414 9256.901942,2472.212640"/>
    <poly id="1037418173" type="building" color="255,230,230" fill="1" layer="-1.00" shape="9319.367022,1709.134068 9324.198796,1718.150174 9330.706532,1714.682158 9334.250579,1721.285842 9342.262805,1717.021899 9333.894388,1701.402336 9319.367022,1709.134068"/>
    <poly id="1037418173#1" type="industrial" color="209,209,204" fill="1" layer="-3.00" shape="9319.367022,1709.134068 9324.198796,1718.150174 9330.706532,1714.682158 9334.250579,1721.285842 9342.262805,1717.021899 9333.894388,1701.402336 9319.367022,1709.134068"/>
    <poly id="1046173881" type="building" color="255,230,230" fill="1" layer="-1.00" shape="8792.039344,2434.068559 8790.822831,2429.043902 8784.148505,2430.648891 8785.365390,2435.662431 8792.039344,2434.068559"/>
    <poly id="1049437817" type="building" color="255,230,230" fill="1" layer="-1.00" shape="7847.890634,2495.767377 7851.716094,2495.392005 7861.261362,2495.014860 7861.911371,2504.949639 7848.224963,2505.413656 7847.890634,2495.767377"/>
    <poly id="1049437818" type="building" color="255,230,230" fill="1" layer="-1.00" shape="7851.716094,2495.392005 7851.274441,2484.284672 7855.071939,2484.086406 7862.188665,2483.852234 7862.416003,2489.545193 7861.047067,2489.600485 7861.261362,2495.014860 7851.716094,2495.392005"/>
    <poly id="1049437819" type="building" color="255,230,230" fill="1" layer="-1.00" shape="7855.071939,2484.086406 7854.436549,2468.967278 7864.411836,2468.548591 7865.054581,2483.667962 7855.071939,2484.086406"/>
    <poly id="1049441534" type="building" color="255,230,230" fill="1" layer="-1.00" shape="7807.742472,2439.778074 7804.852323,2429.870084 7815.662796,2426.741603 7818.545546,2436.649357 7807.742472,2439.778074"/>
    <poly id="1049441535" type="building" color="255,230,230" fill="1" layer="-1.00" shape="7791.760148,2432.267420 7796.015189,2446.080902 7785.303382,2449.357290 7786.827070,2454.280475 7783.609769,2455.265496 7777.838390,2436.529083 7791.760148,2432.267420"/>
    <poly id="1049441536" type="building" color="255,230,230" fill="1" layer="-1.00" shape="7764.750046,2447.838720 7771.465581,2445.188029 7774.745776,2454.018400 7779.230647,2452.462935 7782.500374,2461.838154 7771.123812,2465.782626 7764.750046,2447.838720"/>
    <poly id="1049441537" type="building" color="255,230,230" fill="1" layer="-1.00" shape="7693.741150,2486.202868 7691.804604,2479.441499 7700.151218,2477.077761 7702.106263,2483.951001 7693.741150,2486.202868"/>
    <poly id="1049441538" type="building" color="255,230,230" fill="1" layer="-1.00" shape="7702.106263,2483.951001 7700.151218,2477.077761 7699.627339,2475.247040 7708.772200,2472.653538 7711.251112,2481.357504 7702.106263,2483.951001"/>
    <poly id="1049441539" type="building" color="255,230,230" fill="1" layer="-1.00" shape="7711.251112,2481.357504 7707.942841,2469.544427 7714.077753,2467.698007 7715.452190,2472.215740 7720.840902,2470.589680 7723.116213,2478.063102 7711.251112,2481.357504"/>
    <poly id="1049441540" type="building" color="255,230,230" fill="1" layer="-1.00" shape="7757.992489,2468.701686 7757.249768,2467.687135 7755.054188,2459.359587 7764.588686,2456.378385 7767.526973,2465.720489 7757.992489,2468.701686"/>
    <poly id="1049441541" type="building" color="255,230,230" fill="1" layer="-1.00" shape="7739.734984,2460.938670 7748.907129,2458.190357 7749.583934,2458.735447 7754.122027,2457.359725 7757.249768,2467.687135 7742.842995,2471.643716 7739.734984,2460.938670"/>
    <poly id="1049441542" type="building" color="255,230,230" fill="1" layer="-1.00" shape="7728.519369,2475.769949 7727.423956,2471.984551 7725.804971,2472.454487 7724.550215,2468.118688 7725.967704,2467.708914 7724.998356,2464.361566 7739.516120,2460.174922 7739.734984,2460.938670 7742.842995,2471.643716 7728.519369,2475.769949"/>
    <poly id="1049441543" type="building" color="255,230,230" fill="1" layer="-1.00" shape="7750.895665,2450.044299 7749.151476,2446.437929 7750.097254,2445.990464 7746.213930,2437.974833 7758.194080,2431.847076 7760.467072,2437.584746 7757.779453,2438.642755 7759.329264,2442.543173 7756.084931,2444.128141 7757.427888,2446.898036 7750.895665,2450.044299"/>
    <poly id="1049441544" type="building" color="255,230,230" fill="1" layer="-1.00" shape="7764.750046,2447.838720 7762.634112,2442.495607 7759.759397,2443.625374 7759.329264,2442.543173 7757.779453,2438.642755 7760.467072,2437.584746 7758.194080,2431.847076 7770.823666,2426.875482 7774.277300,2435.600268 7774.768410,2436.851360 7769.056244,2439.100976 7771.465581,2445.188029 7764.750046,2447.838720"/>
    <poly id="1049441545" type="building" color="255,230,230" fill="1" layer="-1.00" shape="7774.277300,2435.600268 7771.129552,2425.884136 7782.308858,2419.841469 7785.984205,2426.759945 7786.221001,2427.201622 7777.861635,2431.756690 7778.642253,2434.096507 7774.277300,2435.600268"/>
    <poly id="1049441546" type="building" color="255,230,230" fill="1" layer="-1.00" shape="7782.308858,2419.841469 7792.165135,2414.934879 7795.533444,2421.976823 7785.984205,2426.759945 7782.308858,2419.841469"/>
    <poly id="1049441547" type="building" color="255,230,230" fill="1" layer="-1.00" shape="7792.350468,2414.239995 7796.120106,2422.340947 7808.921676,2416.407085 7805.151687,2408.317238 7792.350468,2414.239995"/>
    <poly id="1049441548" type="building" color="255,230,230" fill="1" layer="-1.00" shape="7805.151687,2408.317238 7808.921676,2416.407085 7816.570377,2413.019294 7814.623865,2405.211684 7810.618173,2396.646813 7804.233447,2400.476549 7807.615117,2406.884742 7805.151687,2408.317238"/>
    <poly id="1049441549" type="building" color="255,230,230" fill="1" layer="-1.00" shape="7810.618173,2396.646813 7822.666072,2389.809323 7826.724985,2398.553966 7814.623865,2405.211684 7810.618173,2396.646813"/>
    <poly id="1049441550" type="building" color="255,230,230" fill="1" layer="-1.00" shape="7822.666072,2389.809323 7830.600449,2384.695211 7833.739339,2389.715816 7834.911429,2389.353660 7844.532878,2405.156528 7834.612321,2410.895392 7826.724985,2398.553966 7822.666072,2389.809323"/>
    <poly id="105031734" type="building" color="255,230,230" fill="1" layer="-1.00" shape="6679.876334,2122.944180 6689.336611,2126.779053 6689.657590,2125.999547 6693.760985,2115.952717 6694.315227,2114.591119 6684.854932,2110.756238 6679.876334,2122.944180"/>
    <poly id="105031736" type="building" color="255,230,230" fill="1" layer="-1.00" shape="6662.012573,2043.055978 6677.301700,2043.553531 6677.745515,2029.916248 6662.456351,2029.418695 6662.012573,2043.055978"/>
    <poly id="105031738" type="building" color="255,230,230" fill="1" layer="-1.00" shape="6855.803375,2163.230311 6864.092932,2163.978791 6865.343199,2150.100740 6857.053622,2149.352260 6855.803375,2163.230311"/>
    <poly id="105031740" type="building" color="255,230,230" fill="1" layer="-1.00" shape="6919.597879,2098.974923 6930.448141,2099.840321 6931.297508,2089.198042 6920.447226,2088.332642 6919.597879,2098.974923"/>
    <poly id="105031741" type="building" color="255,230,230" fill="1" layer="-1.00" shape="6467.369547,1992.054151 6473.386117,1992.483379 6480.685804,1992.998832 6481.360243,1983.619221 6468.036582,1982.674299 6467.369547,1992.054151"/>
    <poly id="105031745" type="building" color="255,230,230" fill="1" layer="-1.00" shape="6915.461902,2063.970852 6923.359970,2064.717780 6924.557950,2051.995149 6916.659865,2051.248220 6916.502545,2052.900887 6915.654770,2061.907677 6915.461902,2063.970852"/>
    <poly id="105031746" type="building" color="255,230,230" fill="1" layer="-1.00" shape="6582.718798,2035.658594 6595.372390,2036.070198 6595.742251,2024.700237 6583.088634,2024.288634 6582.718798,2035.658594"/>
    <poly id="105031748" type="building" color="255,230,230" fill="1" layer="-1.00" shape="6919.310773,2205.298003 6927.613804,2205.857875 6928.639259,2190.492726 6920.343587,2189.933094 6919.310773,2205.298003"/>
    <poly id="105031749" type="building" color="255,230,230" fill="1" layer="-1.00" shape="6938.249785,2154.790649 6944.832079,2155.316712 6944.592559,2158.357467 6952.671291,2158.999070 6953.800624,2144.983571 6939.124800,2143.815421 6938.249785,2154.790649"/>
    <poly id="105031753" type="building" color="255,230,230" fill="1" layer="-1.00" shape="6622.336563,2041.842881 6635.743157,2042.279074 6636.224119,2027.497014 6622.817490,2027.060821 6622.336563,2041.842881"/>
    <poly id="105031754" type="building" color="255,230,230" fill="1" layer="-1.00" shape="6821.763584,2161.209153 6831.626087,2162.220214 6833.122504,2147.816125 6823.260339,2146.793948 6821.763584,2161.209153"/>
    <poly id="105031755" type="building" color="255,230,230" fill="1" layer="-1.00" shape="6708.389072,2134.709043 6721.234068,2140.812613 6726.769032,2129.243625 6713.924014,2123.140043 6708.389072,2134.709043"/>
    <poly id="105031756" type="building" color="255,230,230" fill="1" layer="-1.00" shape="6647.448320,2095.230751 6653.869150,2095.951487 6654.587943,2089.532865 6648.166744,2088.823243 6647.448320,2095.230751"/>
    <poly id="105031757" type="building" color="255,230,230" fill="1" layer="-1.00" shape="6801.841438,2156.844179 6814.316431,2157.740022 6815.084375,2147.095085 6802.601613,2146.210115 6801.841438,2156.844179"/>
    <poly id="105031758" type="building" color="255,230,230" fill="1" layer="-1.00" shape="6656.268330,2113.519788 6667.392743,2114.816394 6668.343707,2106.714161 6657.219277,2105.417553 6656.268330,2113.519788"/>
    <poly id="105031759" type="building" color="255,230,230" fill="1" layer="-1.00" shape="6655.661175,2076.082956 6664.619779,2076.941914 6665.023349,2072.716003 6665.602186,2066.737871 6656.643566,2065.878912 6655.873775,2073.864654 6655.661175,2076.082956"/>
    <poly id="105031760" type="building" color="255,230,230" fill="1" layer="-1.00" shape="6476.798697,1968.439602 6491.885022,1969.497478 6492.846244,1955.843651 6477.760245,1954.774659 6476.798697,1968.439602"/>
    <poly id="105031761" type="building" color="255,230,230" fill="1" layer="-1.00" shape="6875.922703,2059.467090 6885.920800,2060.404770 6886.078110,2058.752103 6886.643141,2052.751278 6886.902744,2050.000457 6876.904629,2049.062776 6875.922703,2059.467090"/>
    <poly id="105031762" type="building" color="255,230,230" fill="1" layer="-1.00" shape="6880.320187,2183.533153 6890.436179,2184.474696 6891.822819,2169.588613 6881.706801,2168.647069 6880.320187,2183.533153"/>
    <poly id="105031763" type="building" color="255,230,230" fill="1" layer="-1.00" shape="6765.725997,2067.182129 6778.614102,2067.879936 6779.277610,2055.673942 6766.389839,2054.965021 6765.725997,2067.182129"/>
    <poly id="105031764" type="building" color="255,230,230" fill="1" layer="-1.00" shape="6846.099707,2057.293925 6855.135050,2058.066676 6856.252252,2045.096634 6847.209505,2044.323641 6846.874270,2048.262494 6846.377030,2053.998501 6846.099707,2057.293925"/>
    <poly id="105031765" type="building" color="255,230,230" fill="1" layer="-1.00" shape="6894.789133,2130.944087 6905.548935,2131.862125 6906.497570,2120.666772 6895.744767,2119.760089 6895.138303,2126.805419 6894.789133,2130.944087"/>
    <poly id="105031766" type="building" color="255,230,230" fill="1" layer="-1.00" shape="6643.723412,2042.772380 6655.801158,2043.165383 6656.208393,2030.650647 6644.130621,2030.257644 6643.723412,2042.772380"/>
    <poly id="105031768" type="building" color="255,230,230" fill="1" layer="-1.00" shape="6602.592795,2069.917007 6614.807221,2071.104325 6615.964428,2059.159169 6603.749613,2057.982964 6603.529651,2060.201027 6602.728749,2068.463912 6602.592795,2069.917007"/>
    <poly id="105031769" type="building" color="255,230,230" fill="1" layer="-1.00" shape="6874.361809,2093.540061 6886.334714,2094.653345 6887.300084,2084.304123 6875.327157,2083.190837 6874.361809,2093.540061"/>
    <poly id="105031771" type="building" color="255,230,230" fill="1" layer="-1.00" shape="6455.548426,2046.287805 6455.415902,2051.501627 6461.877006,2051.667145 6461.939556,2049.288197 6462.009536,2046.453323 6467.510564,2046.598764 6467.802731,2035.337545 6454.289885,2034.987307 6453.990363,2046.248286 6455.548426,2046.287805"/>
    <poly id="105031773" type="building" color="255,230,230" fill="1" layer="-1.00" shape="6706.743891,2048.572811 6718.442667,2049.710189 6719.624774,2037.687969 6707.918590,2036.550350 6706.743891,2048.572811"/>
    <poly id="105031774" type="building" color="255,230,230" fill="1" layer="-1.00" shape="6526.880535,2003.980186 6534.401836,2004.725437 6535.471675,1993.189099 6527.957740,1992.444087 6526.880535,2003.980186"/>
    <poly id="105031775" type="building" color="255,230,230" fill="1" layer="-1.00" shape="6626.147899,2110.503635 6636.836250,2111.574597 6636.945514,2110.487794 6637.972527,2100.274075 6627.284155,2099.203111 6626.147899,2110.503635"/>
    <poly id="105031776" type="building" color="255,230,230" fill="1" layer="-1.00" shape="6893.276249,2061.701408 6900.268451,2062.352030 6901.446543,2049.784515 6894.461709,2049.134132 6894.055069,2053.448946 6893.490030,2059.449770 6893.276249,2061.701408"/>
    <poly id="105031777" type="building" color="255,230,230" fill="1" layer="-1.00" shape="6743.212042,2130.157221 6749.560526,2132.644765 6752.936357,2124.065183 6746.595247,2121.577876 6743.212042,2130.157221"/>
    <poly id="105031779" type="building" color="255,230,230" fill="1" layer="-1.00" shape="6539.352613,2029.519584 6547.886520,2030.486928 6549.185352,2018.045698 6540.658810,2017.078593 6539.352613,2029.519584"/>
    <poly id="105031780" type="building" color="255,230,230" fill="1" layer="-1.00" shape="6858.669528,2126.518464 6870.026227,2127.489257 6870.871556,2117.647924 6859.507455,2116.676890 6859.389096,2118.041547 6858.839141,2124.487909 6858.669528,2126.518464"/>
    <poly id="105031782" type="building" color="255,230,230" fill="1" layer="-1.00" shape="6933.754710,2176.162090 6946.836280,2177.945837 6948.437630,2166.226579 6935.348650,2164.442590 6933.754710,2176.162090"/>
    <poly id="105031783" type="building" color="255,230,230" fill="1" layer="-1.00" shape="6705.524311,2115.556774 6720.609550,2122.311818 6725.086612,2112.366180 6710.001349,2105.611125 6705.524311,2115.556774"/>
    <poly id="105031784" type="building" color="255,230,230" fill="1" layer="-1.00" shape="6719.604100,2093.718369 6730.920870,2098.414824 6734.583371,2089.655420 6723.266948,2084.947845 6722.529514,2086.715142 6719.604100,2093.718369"/>
    <poly id="105031785" type="building" color="255,230,230" fill="1" layer="-1.00" shape="6931.880391,2133.899583 6941.753938,2134.799933 6942.018639,2131.893513 6942.800290,2123.329614 6932.926723,2122.429263 6931.880391,2133.899583"/>
    <poly id="105031786" type="building" color="255,230,230" fill="1" layer="-1.00" shape="6617.577073,2092.957081 6630.517245,2094.323813 6631.315021,2086.839654 6618.374833,2085.472921 6617.577073,2092.957081"/>
    <poly id="105031787" type="building" color="255,230,230" fill="1" layer="-1.00" shape="6785.154154,2070.841050 6796.420851,2073.444295 6798.820425,2063.075017 6787.553346,2060.482882 6785.154154,2070.841050"/>
    <poly id="105031788" type="building" color="255,230,230" fill="1" layer="-1.00" shape="6887.219684,2158.446014 6893.849529,2158.873432 6894.297704,2151.923079 6887.667851,2151.495660 6887.219684,2158.446014"/>
    <poly id="105031789" type="building" color="255,230,230" fill="1" layer="-1.00" shape="6839.049487,2087.238312 6849.036172,2088.297945 6849.154308,2087.166929 6850.173300,2077.665037 6840.186597,2076.605402 6839.049487,2087.238312"/>
    <poly id="105031792" type="building" color="255,230,230" fill="1" layer="-1.00" shape="6493.526704,2028.341055 6510.871551,2029.483546 6511.839430,2014.717327 6494.494177,2013.585949 6493.526704,2028.341055"/>
    <poly id="105031794" type="building" color="255,230,230" fill="1" layer="-1.00" shape="6620.037790,2072.520619 6630.976554,2073.165794 6631.683826,2061.194874 6620.745038,2060.549698 6620.037790,2072.520619"/>
    <poly id="105031795" type="building" color="255,230,230" fill="1" layer="-1.00" shape="6601.548711,2038.629847 6617.974750,2039.164223 6618.363098,2027.227432 6601.937024,2026.693055 6601.548711,2038.629847"/>
    <poly id="105031796" type="building" color="255,230,230" fill="1" layer="-1.00" shape="6745.745287,2061.880875 6758.678351,2063.014017 6759.722230,2051.154192 6746.788777,2050.032162 6745.745287,2061.880875"/>
    <poly id="105031797" type="building" color="255,230,230" fill="1" layer="-1.00" shape="6821.824323,2120.545163 6833.697945,2121.755241 6834.849382,2110.455229 6822.967992,2109.256024 6821.824323,2120.545163"/>
    <poly id="105031799" type="building" color="255,230,230" fill="1" layer="-1.00" shape="6726.183511,2142.008463 6739.037519,2147.834217 6744.059442,2136.815972 6731.212795,2130.990449 6726.183511,2142.008463"/>
    <poly id="105031801" type="building" color="255,230,230" fill="1" layer="-1.00" shape="6578.934084,2067.267099 6591.598125,2068.491242 6591.699998,2067.404199 6592.501246,2059.130198 6592.653408,2057.633126 6579.989343,2056.408980 6578.934084,2067.267099"/>
    <poly id="105031802" type="building" color="255,230,230" fill="1" layer="-1.00" shape="6684.536652,2046.737409 6699.825770,2047.235023 6700.279046,2033.308768 6684.989889,2032.811154 6684.536652,2046.737409"/>
    <poly id="105052082" type="building" color="255,230,230" fill="1" layer="-1.00" shape="6948.930732,2247.685966 6948.979281,2237.807539 6948.990502,2235.649434 6946.234752,2235.626369 6934.323709,2235.571939 6934.263608,2247.619584 6948.930732,2247.685966"/>
    <poly id="105052085" type="building" color="255,230,230" fill="1" layer="-1.00" shape="7014.778062,2024.372473 7026.236803,2028.339828 7030.231857,2016.876653 7012.466828,2010.712103 7008.471445,2022.186404 7014.778062,2024.372473"/>
    <poly id="105052088" type="building" color="255,230,230" fill="1" layer="-1.00" shape="7012.812838,2143.580626 7034.666547,2143.781400 7034.725079,2136.773838 7034.783058,2130.689728 7034.805678,2128.409606 7012.944527,2128.208592 7012.812838,2143.580626"/>
    <poly id="105052090" type="building" color="255,230,230" fill="1" layer="-1.00" shape="7017.380592,2116.136726 7042.635616,2116.059012 7042.585701,2102.405605 7017.330254,2102.494435 7017.380592,2116.136726"/>
    <poly id="105052093" type="building" color="255,230,230" fill="1" layer="-1.00" shape="6983.416952,2095.447432 7000.787804,2096.013732 7001.247265,2081.920767 6983.876369,2081.354467 6983.416952,2095.447432"/>
    <poly id="105052094" type="building" color="255,230,230" fill="1" layer="-1.00" shape="6972.415445,2142.297002 6981.065042,2142.656848 6980.979626,2144.823660 6988.241697,2145.127159 6988.879443,2129.871761 6972.968097,2129.197302 6972.415445,2142.297002"/>
    <poly id="105052097" type="building" color="255,230,230" fill="1" layer="-1.00" shape="6962.441727,2205.457628 6948.075216,2205.234123 6947.877863,2217.410810 6962.251362,2217.645669 6962.441727,2205.457628"/>
    <poly id="105052099" type="building" color="255,230,230" fill="1" layer="-1.00" shape="7038.849210,2203.843211 7038.559603,2197.313846 7036.087392,2197.433499 7035.908173,2193.411116 7021.461681,2194.052658 7022.004212,2206.197845 7027.939663,2205.935214 7028.261024,2213.077552 7039.243866,2212.590106 7039.128268,2210.016196 7038.849210,2203.843211"/>
    <poly id="105052101" type="building" color="255,230,230" fill="1" layer="-1.00" shape="6972.075019,2023.058234 6984.248895,2026.626019 6988.919086,2028.002137 6992.559157,2015.637277 6987.068996,2014.023029 6987.774772,2011.642791 6982.628325,2010.139889 6981.863627,2012.740729 6975.656131,2010.913965 6972.075019,2023.058234"/>
    <poly id="105052105" type="building" color="255,230,230" fill="1" layer="-1.00" shape="7009.907442,2200.051203 6995.772614,2200.880989 6996.501339,2213.210260 7010.643882,2212.369602 7009.907442,2200.051203"/>
    <poly id="105052107" type="building" color="255,230,230" fill="1" layer="-1.00" shape="7024.170473,2084.459467 7041.835846,2089.819736 7046.825677,2073.460129 7029.159893,2068.110960 7024.170473,2084.459467"/>
    <poly id="105052112" type="building" color="255,230,230" fill="1" layer="-1.00" shape="6989.681143,2070.595580 7001.070332,2070.799986 7009.644993,2070.968282 7009.881499,2058.047418 6989.917604,2057.674717 6989.681143,2070.595580"/>
    <poly id="105052114" type="building" color="255,230,230" fill="1" layer="-1.00" shape="6980.949470,2158.897242 6973.477088,2158.698157 6964.683266,2158.456008 6964.386197,2169.383317 6971.836055,2169.592783 6971.756259,2172.494103 6980.572568,2172.725872 6980.941635,2159.364284 6980.949470,2158.897242"/>
    <poly id="105052115" type="building" color="255,230,230" fill="1" layer="-1.00" shape="6975.588424,2123.174469 6985.311758,2123.469186 6985.419957,2119.923475 6993.725514,2120.183114 6994.174906,2105.945180 6976.138943,2105.379470 6975.588424,2123.174469"/>
    <poly id="105052117" type="building" color="255,230,230" fill="1" layer="-1.00" shape="7041.089310,2182.287034 7040.927567,2179.088555 7045.739486,2178.833807 7045.064307,2165.771946 7042.295701,2165.915309 7042.033886,2160.799871 7035.171606,2161.154655 7035.755568,2172.255338 7026.909404,2172.712331 7027.446374,2182.988145 7041.089310,2182.287034"/>
    <poly id="105052118" type="building" color="255,230,230" fill="1" layer="-1.00" shape="6973.788220,2179.758952 6957.707859,2179.512938 6957.530462,2191.757032 6964.628839,2191.866023 6970.671184,2191.951726 6973.611151,2191.991932 6973.788220,2179.758952"/>
    <poly id="1050637033" type="building" color="255,230,230" fill="1" layer="-1.00" shape="7838.002924,2378.673589 7846.923839,2388.790258 7854.798742,2381.882905 7859.118390,2382.892250 7867.267446,2375.737991 7855.952075,2362.917062 7838.002924,2378.673589"/>
    <poly id="1050637034" type="building" color="255,230,230" fill="1" layer="-1.00" shape="7857.310483,2363.184083 7864.498873,2370.918643 7868.896697,2366.834736 7861.641140,2359.120223 7857.310483,2363.184083"/>
    <poly id="1050637035" type="building" color="255,230,230" fill="1" layer="-1.00" shape="7861.641140,2359.120223 7865.828631,2355.140685 7873.158009,2362.857622 7868.896697,2366.834736 7861.641140,2359.120223"/>
    <poly id="1050637036" type="building" color="255,230,230" fill="1" layer="-1.00" shape="7865.828631,2355.140685 7877.943211,2343.565709 7878.351613,2343.957380 7882.745050,2348.129012 7885.618193,2351.561014 7873.503976,2363.124860 7865.828631,2355.140685"/>
    <poly id="1050637037" type="building" color="255,230,230" fill="1" layer="-1.00" shape="7878.351613,2343.957380 7894.260103,2332.072802 7900.478250,2340.098282 7893.882097,2345.189389 7892.251571,2343.077612 7885.875336,2347.997913 7884.776622,2346.571137 7882.745050,2348.129012 7878.351613,2343.957380"/>
    <poly id="1050638255" type="building" color="255,230,230" fill="1" layer="-1.00" shape="7760.372939,2510.881294 7775.136042,2506.647148 7779.041450,2520.304530 7764.367325,2524.530452 7760.372939,2510.881294"/>
    <poly id="1050638256" type="building" color="255,230,230" fill="1" layer="-1.00" shape="7775.136042,2506.647148 7787.794538,2503.045074 7791.699555,2516.713580 7779.041450,2520.304530 7775.136042,2506.647148"/>
    <poly id="1050638257" type="building" color="255,230,230" fill="1" layer="-1.00" shape="7639.110230,2527.918646 7649.010001,2525.060472 7652.617586,2537.439616 7642.725216,2540.298025 7639.110230,2527.918646"/>
    <poly id="1050638258" type="building" color="255,230,230" fill="1" layer="-1.00" shape="7625.264482,2541.162011 7624.165303,2532.069306 7637.478834,2527.865267 7639.874005,2535.743118 7640.764558,2535.627616 7645.124730,2550.301129 7639.625027,2551.934750 7633.394969,2543.141463 7631.802271,2539.195175 7625.264482,2541.162011"/>
    <poly id="1054210020" type="building" color="255,230,230" fill="1" layer="-1.00" shape="7806.366886,4359.925053 7806.872811,4347.190916 7800.764035,4346.946240 7800.662140,4349.379556 7797.577871,4349.267368 7797.269104,4357.112403 7800.412040,4357.237640 7800.317160,4359.682313 7806.366886,4359.925053"/>
    <poly id="1055943782" type="building" color="255,230,230" fill="1" layer="-1.00" shape="8862.593470,2703.491310 8864.507618,2696.978677 8855.548922,2694.358188 8853.642165,2700.871067 8862.593470,2703.491310"/>
    <poly id="1055943783" type="building" color="255,230,230" fill="1" layer="-1.00" shape="8864.786312,2705.343757 8868.002414,2694.078546 8887.945789,2699.731238 8884.729284,2711.007553 8878.440404,2709.220443 8869.940556,2706.804192 8864.786312,2705.343757"/>