<?xml version="1.0" encoding="UTF-8"?>
<!-- generated on 2025-12-16 15:23:20.564993 by randomTrips.py v1_5_0+0000-3a3be608d2
  options: -n pfaffenhofen.net.xml -r pfaffenhofen.trips.xml -e 3600 -p 2
-->
<routes xmlns:xsi="http://www.w3.org/2001/XMLSchema-instance" xsi:noNamespaceSchemaLocation="http://sumo.dlr.de/xsd/routes_file.xsd">
    <trip id="0" depart="0.00" from="-4058873#2" to="715780253#3"/>
    <trip id="1" depart="2.00" from="-524888142" to="396860256"/>
    <trip id="2" depart="4.00" from="-4262586#4" to="-1177311024#0"/>
    <trip id="3" depart="6.00" from="-810324791#10" to="-988699540#4"/>
    <trip id="4" depart="8.00" from="-738969449#0" to="21849681#3"/>
    <trip id="5" depart="10.00" from="4324938#0" to="-42699542#2"/>
    <trip id="6" depart="12.00" from="-378307494#3" to="28304207#1"/>
    <trip id="7" depart="14.00" from="4792341" to="28636891#1"/>
    <trip id="8" depart="16.00" from="989730063" to="4058280#1"/>
    <trip id="9" depart="18.00" from="-650601172#1" to="433334259#3"/>
    <trip id="10" depart="20.00" from="-237184046#0" to="-975235489#1"/>
    <trip id="11" depart="22.00" from="1193127305" to="946576829#1"/>
    <trip id="12" depart="24.00" from="28565852#1" to="152830599#4"/>
    <trip id="13" depart="26.00" from="21826694#0" to="-652347032#0"/>
    <trip id="14" depart="28.00" from="-34047984#2" to="-972058834"/>
    <trip id="15" depart="30.00" from="32882022#0" to="-28335475#1"/>
    <trip id="16" depart="32.00" from="843401123#7" to="-193663134#1"/>
    <trip id="17" depart="34.00" from="-22735154#2" to="432780899#0"/>
    <trip id="18" depart="36.00" from="4818782#12" to="-22414270#0"/>
    <trip id="19" depart="38.00" from="1110354804" to="-377214387#1"/>
    <trip id="20" depart="40.00" from="210564310#7" to="58737258#0"/>
    <trip id="21" depart="42.00" from="23010784#1" to="971954901"/>
    <trip id="22" depart="44.00" from="944852671#0" to="-4345110"/>
    <trip id="23" depart="46.00" from="-27284457#4" to="193663134#0"/>
    <trip id="24" depart="48.00" from="-27015028" to="-4058448#0"/>
    <trip id="25" depart="50.00" from="-378293339#0" to="-210564310#7"/>
    <trip id="26" depart="52.00" from="21639281#0" to="378307494#5"/>
    <trip id="27" depart="54.00" from="715780253#19" to="-28636892"/>
    <trip id="28" depart="56.00" from="590970320" to="4264698#0"/>
    <trip id="29" depart="58.00" from="810324794#5" to="-843401123#4"/>
    <trip id="30" depart="60.00" from="-57867886#0" to="-32862006#2"/>
    <trip id="31" depart="62.00" from="-33378043#3" to="-23010783#2"/>
    <trip id="32" depart="64.00" from="1107798362#0" to="1072275583"/>
    <trip id="33" depart="66.00" from="4242672#1" to="991101090"/>
    <trip id="34" depart="68.00" from="-4273053#1" to="662361738"/>
    <trip id="35" depart="70.00" from="-1107819412" to="38969631#2"/>
    <trip id="36" depart="72.00" from="412339164" to="502721214"/>
    <trip id="37" depart="74.00" from="1308520074" to="80438653#3"/>
    <trip id="38" depart="76.00" from="4242433#0" to="-4262590#1"/>
    <trip id="39" depart="78.00" from="-58734197" to="-45395491"/>
    <trip id="40" depart="80.00" from="-365344574#1" to="-4264699#3"/>
    <trip id="41" depart="82.00" from="-28430087#0" to="-28153489#1"/>
    <trip id="42" depart="84.00" from="-30822702" to="4242384#1"/>
    <trip id="43" depart="86.00" from="4058449#0" to="432832888#2"/>
    <trip id="44" depart="88.00" from="-27284457#1" to="-4242672#2"/>
    <trip id="45" depart="90.00" from="-4262780" to="28168442#0"/>
    <trip id="46" depart="92.00" from="-4058599#0" to="-28430087#3"/>
    <trip id="47" depart="94.00" from="22735154#3" to="1190710577"/>
    <trip id="48" depart="96.00" from="-27769092#5" to="1177972478#1"/>
    <trip id="49" depart="98.00" from="23010937#2" to="54537091"/>
    <trip id="50" depart="100.00" from="1188874592#1" to="353893897#2"/>
    <trip id="51" depart="102.00" from="150684174#2" to="-1107798371"/>
    <trip id="52" depart="104.00" from="-810324790#2" to="1275505508#1"/>
    <trip id="53" depart="106.00" from="-810324791#1" to="-48446894#0"/>
    <trip id="54" depart="108.00" from="-810324793#8" to="-28168442#1"/>
    <trip id="55" depart="110.00" from="-1195043471#0" to="-508497828#1"/>
    <trip id="56" depart="112.00" from="-376968910#6" to="378301236#0"/>
    <trip id="57" depart="114.00" from="24569885#0" to="-808655154#3"/>
    <trip id="58" depart="116.00" from="-4445593#4" to="32862001#0"/>
    <trip id="59" depart="118.00" from="-505369902#2" to="715780253#0"/>
    <trip id="60" depart="120.00" from="-33823134" to="-372317038#1"/>
    <trip id="61" depart="122.00" from="1004458454#1" to="-411319316#0"/>
    <trip id="62" depart="124.00" from="58736513#0" to="-4058448#4"/>
    <trip id="63" depart="126.00" from="21627107#1" to="1054727710"/>
    <trip id="64" depart="128.00" from="-505369902#7" to="492193234"/>
    <trip id="65" depart="130.00" from="-28430087#3" to="371169259#1"/>
    <trip id="66" depart="132.00" from="4246346#3" to="27769093#1"/>
    <trip id="67" depart="134.00" from="-1212218717#0" to="-379564976#1"/>
    <trip id="68" depart="136.00" from="-191000242#1" to="-263993956#1"/>
    <trip id="69" depart="138.00" from="-1202020228#0" to="21849681#3"/>
    <trip id="70" depart="140.00" from="-4242384#0" to="4058759#1"/>
    <trip id="71" depart="142.00" from="398554135" to="944247059"/>
    <trip id="72" depart="144.00" from="115478911" to="810324794#6"/>
    <trip id="73" depart="146.00" from="4339907#0" to="-1107798363#0"/>
    <trip id="74" depart="148.00" from="58999859" to="656540040"/>
    <trip id="75" depart="150.00" from="-4242426#0" to="-28565856#2"/>
    <trip id="76" depart="152.00" from="-51016573#1" to="1186879915#2"/>
    <trip id="77" depart="154.00" from="-28477071#0" to="-398551560#0"/>
    <trip id="78" depart="156.00" from="-21629537#0" to="376953271#0"/>
    <trip id="79" depart="158.00" from="32910423#1" to="-715780253#5"/>
    <trip id="80" depart="160.00" from="20473112#4" to="59004951"/>
    <trip id="81" depart="162.00" from="385693972#1" to="714471064"/>
    <trip id="82" depart="164.00" from="-28536301#1" to="-1450970491"/>
    <trip id="83" depart="166.00" from="32860057#8" to="161593043#4"/>
    <trip id="84" depart="168.00" from="4273051#4" to="4792029"/>
    <trip id="85" depart="170.00" from="32881183#1" to="-378307494#1"/>
    <trip id="86" depart="172.00" from="-28310366#0" to="80438654"/>
    <trip id="87" depart="174.00" from="-41494963" to="49195261#3"/>
    <trip id="88" depart="176.00" from="-4246349#1" to="365344574#2"/>
    <trip id="89" depart="178.00" from="-398558922" to="4351956#1"/>
    <trip id="90" depart="180.00" from="398555438" to="-4792303#4"/>
    <trip id="91" depart="182.00" from="4246383#1" to="-24569891#0"/>
    <trip id="92" depart="184.00" from="51016632" to="-21626444#2"/>
    <trip id="93" depart="186.00" from="21868782#3" to="-38969350#1"/>
    <trip id="94" depart="188.00" from="33378043#3" to="-382422058#1"/>
    <trip id="95" depart="190.00" from="1186879914" to="-989730063"/>
    <trip id="96" depart="192.00" from="-370715691#2" to="-975235485"/>
    <trip id="97" depart="194.00" from="-28158465" to="-108964557#1"/>
    <trip id="98" depart="196.00" from="33915495#1" to="-507397868#1"/>
    <trip id="99" depart="198.00" from="442023047#2" to="-33371078#4"/>
    <trip id="100" depart="200.00" from="32860061" to="70669932#0"/>
    <trip id="101" depart="202.00" from="4273048#1" to="966131665#0"/>
    <trip id="102" depart="204.00" from="58736512" to="4242673#0"/>
    <trip id="103" depart="206.00" from="944852671#0" to="-609453033"/>
    <trip id="104" depart="208.00" from="379564976#1" to="493211817#0"/>
    <trip id="105" depart="210.00" from="-4818782#7" to="-32862252"/>
    <trip id="106" depart="212.00" from="-1256018759" to="32860036#7"/>
    <trip id="107" depart="214.00" from="-1247619799#2" to="-4818782#12"/>
    <trip id="108" depart="216.00" from="21629537#3" to="428692454#2"/>
    <trip id="109" depart="218.00" from="-52153182#1" to="-8466832#2"/>
    <trip id="110" depart="220.00" from="1153716097" to="4818782#12"/>
    <trip id="111" depart="222.00" from="-263993953#0" to="4351955#2"/>
    <trip id="112" depart="224.00" from="628277190#2" to="-23010783#0"/>
    <trip id="113" depart="226.00" from="4058759#1" to="-4273051#4"/>
    <trip id="114" depart="228.00" from="-32860058#0" to="28151862#0"/>
    <trip id="115" depart="230.00" from="-80438652#0" to="-4262782#2"/>
    <trip id="116" depart="232.00" from="-1107819415#0" to="21864076#1"/>
    <trip id="117" depart="234.00" from="21826697#0" to="4246399#2"/>
    <trip id="118" depart="236.00" from="-21821741#0" to="-28535786#0"/>
    <trip id="119" depart="238.00" from="-58737257#13" to="59004956#4"/>
    <trip id="120" depart="240.00" from="334712899" to="377214387#2"/>
    <trip id="121" depart="242.00" from="-155635953#1" to="-416947374#5"/>
    <trip id="122" depart="244.00" from="865020221#1" to="-432776478#2"/>
    <trip id="123" depart="246.00" from="-4246347#2" to="30133490"/>
    <trip id="124" depart="248.00" from="-48446894#1" to="4792268#1"/>
    <trip id="125" depart="250.00" from="810324791#7" to="51016573#0"/>
    <trip id="126" depart="252.00" from="-32882443#0" to="-993297920#1"/>
    <trip id="127" depart="254.00" from="679444286" to="-432777227"/>
    <trip id="128" depart="256.00" from="-1150155294#2" to="-1150762680#4"/>
    <trip id="129" depart="258.00" from="1107771809#2" to="-4242384#2"/>
    <trip id="130" depart="260.00" from="376968910#4" to="514020540"/>
    <trip id="131" depart="262.00" from="838966359#1" to="972221277"/>
    <trip id="132" depart="264.00" from="-32882022#1" to="371745640#6"/>
    <trip id="133" depart="266.00" from="-1177311024#1" to="-715780253#4"/>
    <trip id="134" depart="268.00" from="843401123#7" to="-975299953#1"/>
    <trip id="135" depart="270.00" from="4272718#4" to="398560232"/>
    <trip id="136" depart="272.00" from="8047510#2" to="371134347#1"/>
    <trip id="137" depart="274.00" from="-950132455" to="-1089781386"/>
    <trip id="138" depart="276.00" from="-4264695#4" to="-39442093#0"/>
    <trip id="139" depart="278.00" from="1107943292" to="-263993955"/>
    <trip id="140" depart="280.00" from="-4273048#3" to="-1107798378"/>
    <trip id="141" depart="282.00" from="-1174603685" to="1107819413#0"/>
    <trip id="142" depart="284.00" from="21635779#1" to="1240590958"/>
    <trip id="143" depart="286.00" from="28168437#1" to="508497828#0"/>
    <trip id="144" depart="288.00" from="-41495400#1" to="-1192946165"/>
    <trip id="145" depart="290.00" from="1192929462#0" to="-4351956#1"/>
    <trip id="146" depart="292.00" from="58736512" to="843401123#8"/>
    <trip id="147" depart="294.00" from="1107748563" to="21826694#8"/>
    <trip id="148" depart="296.00" from="652347032#1" to="70669931"/>
    <trip id="149" depart="298.00" from="-4345113#2" to="-957183468#0"/>
    <trip id="150" depart="300.00" from="-432776478#3" to="-8047508"/>
    <trip id="151" depart="302.00" from="-263993954" to="1174606706#0"/>
    <trip id="152" depart="304.00" from="-194289208#1" to="22414325#0"/>
    <trip id="153" depart="306.00" from="-652347014#2" to="-1004458452#1"/>
    <trip id="154" depart="308.00" from="-493211820#1" to="-32860059#2"/>
    <trip id="155" depart="310.00" from="21864076#1" to="-28168442#0"/>
    <trip id="156" depart="312.00" from="-581538935#0" to="-1202020228#1"/>
    <trip id="157" depart="314.00" from="508497825" to="-377120739"/>
    <trip id="158" depart="316.00" from="1431740592" to="810324792#1"/>
    <trip id="159" depart="318.00" from="1457168892#1" to="51364907#0"/>
    <trip id="160" depart="320.00" from="-58737257#6" to="57857940#0"/>
    <trip id="161" depart="322.00" from="1193425848#0" to="8047508"/>
    <trip id="162" depart="324.00" from="-946576207" to="399934136"/>
    <trip id="163" depart="326.00" from="28304208#0" to="944269841"/>
    <trip id="164" depart="328.00" from="8047510#0" to="-365344574#1"/>
    <trip id="165" depart="330.00" from="-993270782" to="58736513#4"/>
    <trip id="166" depart="332.00" from="-32881958#0" to="1167495893"/>
    <trip id="167" depart="334.00" from="-843401123#9" to="-32882171#1"/>
    <trip id="168" depart="336.00" from="-957183466#2" to="70669939#2"/>
    <trip id="169" depart="338.00" from="1193127357#0" to="1192929462#0"/>
    <trip id="170" depart="340.00" from="-975235481" to="4242433#0"/>
    <trip id="171" depart="342.00" from="-377275166#0" to="-1177972478#0"/>
    <trip id="172" depart="344.00" from="652347011#3" to="-1107819417#0"/>
    <trip id="173" depart="346.00" from="4267619#0" to="-28158464"/>
    <trip id="174" depart="348.00" from="-24813409#1" to="32860057#3"/>
    <trip id="175" depart="350.00" from="58530562#0" to="-4262590#1"/>
    <trip id="176" depart="352.00" from="-412339165" to="581538935#5"/>
    <trip id="177" depart="354.00" from="715786203#1" to="21826699#6"/>
    <trip id="178" depart="356.00" from="-416947374#5" to="33647943#1"/>
    <trip id="179" depart="358.00" from="4246400#4" to="378300183"/>
    <trip id="180" depart="360.00" from="22649943#4" to="-1275505508#2"/>
    <trip id="181" depart="362.00" from="-434583340#0" to="22414259#3"/>
    <trip id="182" depart="364.00" from="1107798375" to="-1188874591#1"/>
    <trip id="183" depart="366.00" from="58736512" to="1150155294#2"/>
    <trip id="184" depart="368.00" from="4262590#5" to="244183000"/>
    <trip id="185" depart="370.00" from="-4246349#1" to="399934129#3"/>
    <trip id="186" depart="372.00" from="-4246383#0" to="23010939#0"/>
    <trip id="187" depart="374.00" from="4246349#0" to="-609453033"/>
    <trip id="188" depart="376.00" from="263993955" to="-386398218#0"/>
    <trip id="189" depart="378.00" from="28182287#1" to="708262384#0"/>
    <trip id="190" depart="380.00" from="432776478#3" to="-20123815#4"/>
    <trip id="191" depart="382.00" from="-4994845#7" to="4818794#0"/>
    <trip id="192" depart="384.00" from="-581538935#2" to="23010937#0"/>
    <trip id="193" depart="386.00" from="-4273053#1" to="-432728073"/>
    <trip id="194" depart="388.00" from="-28565854#1" to="32860036#9"/>
    <trip id="195" depart="390.00" from="-28168447" to="58734338"/>
    <trip id="196" depart="392.00" from="378307494#6" to="4340416"/>
    <trip id="197" depart="394.00" from="26490233#1" to="-4267619#3"/>
    <trip id="198" depart="396.00" from="-22128142" to="433334261#0"/>
    <trip id="199" depart="398.00" from="38781870#1" to="-1153716102#1"/>
    <trip id="200" depart="400.00" from="32910421#1" to="662361738"/>
    <trip id="201" depart="402.00" from="-4339907#3" to="4273050#1"/>
    <trip id="202" depart="404.00" from="32862009#0" to="581538935#4"/>
    <trip id="203" depart="406.00" from="-32956918" to="58733329#1"/>
    <trip id="204" depart="408.00" from="46822333" to="-4994842#1"/>
    <trip id="205" depart="410.00" from="42699542#0" to="32860048#2"/>
    <trip id="206" depart="412.00" from="1243397266#2" to="-993297252#0"/>
    <trip id="207" depart="414.00" from="23010939#1" to="33378043#1"/>
    <trip id="208" depart="416.00" from="-211097628#1" to="-1107819420"/>
    <trip id="209" depart="418.00" from="4792268#0" to="4792303#5"/>
    <trip id="210" depart="420.00" from="21630754" to="-398555438"/>
    <trip id="211" depart="422.00" from="972058834" to="32007829"/>
    <trip id="212" depart="424.00" from="-58737257#13" to="4818782#5"/>
    <trip id="213" depart="426.00" from="58736513#2" to="4246345#4"/>
    <trip id="214" depart="428.00" from="1193426366" to="70669932#4"/>
    <trip id="215" depart="430.00" from="-32860890#0" to="100649666"/>
    <trip id="216" depart="432.00" from="70669941#1" to="398554134#0"/>
    <trip id="217" depart="434.00" from="416947374#9" to="-28535787"/>
    <trip id="218" depart="436.00" from="32862006#0" to="-21627109#2"/>
    <trip id="219" depart="438.00" from="-21849681#3" to="28476059#2"/>
    <trip id="220" depart="440.00" from="33915495#0" to="-399934136"/>
    <trip id="221" depart="442.00" from="-1192929462#0" to="813482073#0"/>
    <trip id="222" depart="444.00" from="416947374#6" to="4818795"/>
    <trip id="223" depart="446.00" from="-4262668#1" to="-4818782#3"/>
    <trip id="224" depart="448.00" from="28151928" to="-28153475"/>
    <trip id="225" depart="450.00" from="4262586#0" to="-378307494#6"/>
    <trip id="226" depart="452.00" from="21629537#2" to="28565854#2"/>
    <trip id="227" depart="454.00" from="4262590#22" to="-611746905#6"/>
    <trip id="228" depart="456.00" from="-58530562#3" to="33647947#1"/>
    <trip id="229" depart="458.00" from="1004458454#2" to="-643192256"/>
    <trip id="230" depart="460.00" from="32862252" to="-58737257#13"/>
    <trip id="231" depart="462.00" from="-161593043#2" to="397213964"/>
    <trip id="232" depart="464.00" from="30150118" to="32910423#1"/>
    <trip id="233" depart="466.00" from="916562666" to="-4345113#4"/>
    <trip id="234" depart="468.00" from="-440169616#4" to="4439561#0"/>
    <trip id="235" depart="470.00" from="-4273048#1" to="4262590#21"/>
    <trip id="236" depart="472.00" from="-4818782#5" to="-416947374#0"/>
    <trip id="237" depart="474.00" from="-590970320" to="152830333#1"/>
    <trip id="238" depart="476.00" from="-32881958#1" to="-23909888#1"/>
    <trip id="239" depart="478.00" from="1150155297" to="-4058449#1"/>
    <trip id="240" depart="480.00" from="-1107798365#2" to="-28524529#0"/>
    <trip id="241" depart="482.00" from="1256099095" to="-4262590#31"/>
    <trip id="242" depart="484.00" from="28744427#0" to="-400723817#4"/>
    <trip id="243" depart="486.00" from="370582499#1" to="-378301236#2"/>
    <trip id="244" depart="488.00" from="662361738" to="-4244308#1"/>
    <trip id="245" depart="490.00" from="-416947374#5" to="33378043#4"/>
    <trip id="246" depart="492.00" from="-810324792#3" to="505369902#4"/>
    <trip id="247" depart="494.00" from="-4967337#2" to="1174603686"/>
    <trip id="248" depart="496.00" from="4795931#2" to="21629537#0"/>
    <trip id="249" depart="498.00" from="-211097621#3" to="-4339907#0"/>
    <trip id="250" depart="500.00" from="-1054725059" to="-23010783#0"/>
    <trip id="251" depart="502.00" from="643192256" to="4967337#2"/>
    <trip id="252" depart="504.00" from="-21635773#0" to="-1107798378"/>
    <trip id="253" depart="506.00" from="57854258#0" to="-19571106#0"/>
    <trip id="254" depart="508.00" from="1195266633" to="4262465"/>
    <trip id="255" depart="510.00" from="440169616#5" to="4246349#10"/>
    <trip id="256" depart="512.00" from="51016573#1" to="275620242#1"/>
    <trip id="257" depart="514.00" from="-698525822#6" to="810324794#1"/>
    <trip id="258" depart="516.00" from="23011064#0" to="-4262567#4"/>
    <trip id="259" depart="518.00" from="-433334259#1" to="32882197"/>
    <trip id="260" depart="520.00" from="-991101088" to="-4254218#2"/>
    <trip id="261" depart="522.00" from="-4246383#1" to="-434583340#5"/>
    <trip id="262" depart="524.00" from="-52832176#0" to="416917285#2"/>
    <trip id="263" depart="526.00" from="4792028#0" to="-22414323#4"/>
    <trip id="264" depart="528.00" from="957183465" to="-1188874589#2"/>
    <trip id="265" depart="530.00" from="4262781#1" to="-4242672#5"/>
    <trip id="266" depart="532.00" from="-58734186#1" to="4254220#7"/>
    <trip id="267" depart="534.00" from="4246503#2" to="16710243#1"/>
    <trip id="268" depart="536.00" from="1188874590#0" to="-32860059#0"/>
    <trip id="269" depart="538.00" from="-4242384#2" to="-58737257#11"/>
    <trip id="270" depart="540.00" from="865020221#0" to="944809310#0"/>
    <trip id="271" depart="542.00" from="4818846#2" to="-493211820#0"/>
    <trip id="272" depart="544.00" from="386398218#2" to="-398554134#1"/>
    <trip id="273" depart="546.00" from="-4262668#1" to="4058252#1"/>
    <trip id="274" depart="548.00" from="22735154#1" to="21635779#0"/>
    <trip id="275" depart="550.00" from="377214387#6" to="-4273049#1"/>
    <trip id="276" depart="552.00" from="1153718996" to="966131664"/>
    <trip id="277" depart="554.00" from="372880577#0" to="-4273052#1"/>
    <trip id="278" depart="556.00" from="-4273050#2" to="611746905#4"/>
    <trip id="279" depart="558.00" from="-923860390" to="-1107798373"/>
    <trip id="280" depart="560.00" from="21826699#8" to="843401123#8"/>
    <trip id="281" depart="562.00" from="58734573#1" to="-4262590#13"/>
    <trip id="282" depart="564.00" from="1150155293" to="-372880577#0"/>
    <trip id="283" depart="566.00" from="-1390001413" to="-400723817#2"/>
    <trip id="284" depart="568.00" from="-32860029" to="4058449#0"/>
    <trip id="285" depart="570.00" from="-28477071#0" to="-22649946#2"/>
    <trip id="286" depart="572.00" from="-1110354804" to="51364905"/>
    <trip id="287" depart="574.00" from="398551560#0" to="23800628#0"/>
    <trip id="288" depart="576.00" from="581538935#1" to="-49195261#6"/>
    <trip id="289" depart="578.00" from="1220055191#6" to="-1195043471#1"/>
    <trip id="290" depart="580.00" from="1243397266#2" to="32910423#4"/>
    <trip id="291" depart="582.00" from="-20473112#1" to="4795931#1"/>
    <trip id="292" depart="584.00" from="663849036#1" to="19571106#6"/>
    <trip id="293" depart="586.00" from="32860059#2" to="-4262468#0"/>
    <trip id="294" depart="588.00" from="23010937#0" to="-1058242854#1"/>
    <trip id="295" depart="590.00" from="-1107771810" to="-810324791#6"/>
    <trip id="296" depart="592.00" from="-28565854#0" to="-32860892#3"/>
    <trip id="297" depart="594.00" from="-400723817#1" to="4967334#1"/>
    <trip id="298" depart="596.00" from="957183466#2" to="23083846#0"/>
    <trip id="299" depart="598.00" from="-1107771809#0" to="28310366#0"/>
    <trip id="300" depart="600.00" from="4438819" to="4439561#2"/>
    <trip id="301" depart="602.00" from="-957183466#1" to="382422059"/>
    <trip id="302" depart="604.00" from="-70669939#6" to="698525822#7"/>
    <trip id="303" depart="606.00" from="-1107798361" to="376953271#1"/>
    <trip id="304" depart="608.00" from="1107819421#5" to="33915495#2"/>
    <trip id="305" depart="610.00" from="28536301#2" to="1454633444#0"/>
    <trip id="306" depart="612.00" from="-371745640#6" to="22933010#0"/>
    <trip id="307" depart="614.00" from="32910423#0" to="32885858#0"/>
    <trip id="308" depart="616.00" from="-32860060#3" to="-4273048#4"/>
    <trip id="309" depart="618.00" from="883249936" to="433334259#1"/>
    <trip id="310" depart="620.00" from="505369902#6" to="-433334257#0"/>
    <trip id="311" depart="622.00" from="32882116#1" to="4818795"/>
    <trip id="312" depart="624.00" from="972075707" to="966131667#1"/>
    <trip id="313" depart="626.00" from="28477073#0" to="-22649946#2"/>
    <trip id="314" depart="628.00" from="-377144005#1" to="-21826694#5"/>
    <trip id="315" depart="630.00" from="21626445#1" to="1188874593"/>
    <trip id="316" depart="632.00" from="4246345#4" to="161593003#1"/>
    <trip id="317" depart="634.00" from="-51016633#1" to="4345113#1"/>
    <trip id="318" depart="636.00" from="30072593#0" to="46822333"/>
    <trip id="319" depart="638.00" from="-28168527" to="57857924#1"/>
    <trip id="320" depart="640.00" from="4262590#15" to="433334261#1"/>
    <trip id="321" depart="642.00" from="4254223#2" to="-637765903#1"/>
    <trip id="322" depart="644.00" from="32860036#16" to="-8047510#3"/>
    <trip id="323" depart="646.00" from="-32910421#4" to="4273049#0"/>
    <trip id="324" depart="648.00" from="1136268769#0" to="-21637642#2"/>
    <trip id="325" depart="650.00" from="-663848936" to="-738969449#3"/>
    <trip id="326" depart="652.00" from="49195261#2" to="-4818782#8"/>
    <trip id="327" depart="654.00" from="-377214387#6" to="-4246400#0"/>
    <trip id="328" depart="656.00" from="-4262786#1" to="30133489"/>
    <trip id="329" depart="658.00" from="-32881958#1" to="-80438652#2"/>
    <trip id="330" depart="660.00" from="-4262566" to="432780884"/>
    <trip id="331" depart="662.00" from="4818790#1" to="-80438652#3"/>
    <trip id="332" depart="664.00" from="1107819421#4" to="-4264699#1"/>
    <trip id="333" depart="666.00" from="-152830600#0" to="-371134350#1"/>
    <trip id="334" depart="668.00" from="-28476061#1" to="20429881#1"/>
    <trip id="335" depart="670.00" from="-398551560#1" to="4246345#6"/>
    <trip id="336" depart="672.00" from="-21630755#1" to="370885153#0"/>
    <trip id="337" depart="674.00" from="-28134470#2" to="1356952833"/>
    <trip id="338" depart="676.00" from="20473112#2" to="24569890#1"/>
    <trip id="339" depart="678.00" from="392733763#1" to="-1193308241#1"/>
    <trip id="340" depart="680.00" from="4273051#1" to="4242672#2"/>
    <trip id="341" depart="682.00" from="-698525822#4" to="-275620242#2"/>
    <trip id="342" depart="684.00" from="-4273050#4" to="-378307494#8"/>
    <trip id="343" depart="686.00" from="-57867887" to="32910222#4"/>
    <trip id="344" depart="688.00" from="32860059#0" to="-4273049#6"/>
    <trip id="345" depart="690.00" from="-58530560#0" to="-4242512#1"/>
    <trip id="346" depart="692.00" from="-28536228#2" to="-972074156#0"/>
    <trip id="347" depart="694.00" from="57867890" to="28636662#5"/>
    <trip id="348" depart="696.00" from="1246307122#0" to="4265959#0"/>
    <trip id="349" depart="698.00" from="4058599#1" to="-4262590#26"/>
    <trip id="350" depart="700.00" from="44959802" to="371745640#0"/>
    <trip id="351" depart="702.00" from="-21824179" to="-58737257#3"/>
    <trip id="352" depart="704.00" from="-1150155295#0" to="28310366#0"/>
    <trip id="353" depart="706.00" from="22128142" to="-1153722662#0"/>
    <trip id="354" depart="708.00" from="161593043#1" to="-1107798373"/>
    <trip id="355" depart="710.00" from="-32860046#0" to="-378293339#1"/>
    <trip id="356" depart="712.00" from="-4058627#1" to="4262567#2"/>
    <trip id="357" depart="714.00" from="28744430#0" to="-4262590#15"/>
    <trip id="358" depart="716.00" from="-508497827#0" to="32881957#2"/>
    <trip id="359" depart="718.00" from="-27284457#5" to="493211821"/>
    <trip id="360" depart="720.00" from="625734683" to="-21849681#2"/>
    <trip id="361" depart="722.00" from="378301236#2" to="-1356952832"/>
    <trip id="362" depart="724.00" from="4818747#3" to="-4340429#1"/>
    <trip id="363" depart="726.00" from="4792268#2" to="-32860059#5"/>
    <trip id="364" depart="728.00" from="32860059#2" to="-28168442#0"/>
    <trip id="365" depart="730.00" from="-41494855#1" to="-379564986"/>
    <trip id="366" depart="732.00" from="1175918798#1" to="1447151994"/>
    <trip id="367" depart="734.00" from="-32860057#5" to="21821741#1"/>
    <trip id="368" depart="736.00" from="4325192#1" to="4242433#0"/>
    <trip id="369" depart="738.00" from="-33378043#1" to="-58530562#3"/>
    <trip id="370" depart="740.00" from="-4242673#4" to="382422058#1"/>
    <trip id="371" depart="742.00" from="-32881558#6" to="4058873#1"/>
    <trip id="372" depart="744.00" from="4246347#6" to="21826696#3"/>
    <trip id="373" depart="746.00" from="-1058242853#3" to="1153722661"/>
    <trip id="374" depart="748.00" from="1153716098" to="28310367#1"/>
    <trip id="375" depart="750.00" from="-28168436#0" to="-30150127"/>
    <trip id="376" depart="752.00" from="32862001#8" to="-493211817#0"/>
    <trip id="377" depart="754.00" from="4244308#2" to="1158240663#1"/>
    <trip id="378" depart="756.00" from="370572473" to="810324792#1"/>
    <trip id="379" depart="758.00" from="-21626444#1" to="39442093#1"/>
    <trip id="380" depart="760.00" from="-58530562#3" to="-581541203#2"/>
    <trip id="381" depart="762.00" from="1107798371" to="4246349#9"/>
    <trip id="382" depart="764.00" from="1292312102" to="-810324793#4"/>
    <trip id="383" depart="766.00" from="-1275505508#1" to="23679059#0"/>
    <trip id="384" depart="768.00" from="152830599#3" to="377275165"/>
    <trip id="385" depart="770.00" from="-32910422#0" to="-353893905"/>
    <trip id="386" depart="772.00" from="361941070" to="22735154#0"/>
    <trip id="387" depart="774.00" from="-152830601#1" to="57857940#1"/>
    <trip id="388" depart="776.00" from="650724632#1" to="-28636891#1"/>
    <trip id="389" depart="778.00" from="-373377247#2" to="57857932"/>
    <trip id="390" depart="780.00" from="843401123#7" to="22414323#2"/>
    <trip id="391" depart="782.00" from="58737256" to="493211816#1"/>
    <trip id="392" depart="784.00" from="-715780253#0" to="-211097621#0"/>
    <trip id="393" depart="786.00" from="-22414259#1" to="1308520073#1"/>
    <trip id="394" depart="788.00" from="28679231" to="-52153182#1"/>
    <trip id="395" depart="790.00" from="58737257#5" to="4324938#2"/>
    <trip id="396" depart="792.00" from="8047510#3" to="-59004956#3"/>
    <trip id="397" depart="794.00" from="-4246349#11" to="-1452352627"/>
    <trip id="398" depart="796.00" from="4242398" to="-32910423#2"/>
    <trip id="399" depart="798.00" from="1193425848#0" to="432776478#3"/>
    <trip id="400" depart="800.00" from="507397868#1" to="-399934136"/>
    <trip id="401" depart="802.00" from="-20122880" to="367588616"/>
    <trip id="402" depart="804.00" from="4273051#2" to="32881183#2"/>
    <trip id="403" depart="806.00" from="-1454633443" to="-652347032#3"/>
    <trip id="404" depart="808.00" from="-378301236#0" to="-4967333#0"/>
    <trip id="405" depart="810.00" from="-23909889" to="-334712898#0"/>
    <trip id="406" depart="812.00" from="-810324793#7" to="-27284457#4"/>
    <trip id="407" depart="814.00" from="-57865809#0" to="-386351803"/>
    <trip id="408" depart="816.00" from="-4339907#2" to="1175918798#1"/>
    <trip id="409" depart="818.00" from="-4818833#0" to="28744427#3"/>
    <trip id="410" depart="820.00" from="4244308#1" to="-4262590#31"/>
    <trip id="411" depart="822.00" from="1241312070" to="-32861998#0"/>
    <trip id="412" depart="824.00" from="-20429879#0" to="-810324790#1"/>
    <trip id="413" depart="826.00" from="808654111#7" to="-376962942"/>
    <trip id="414" depart="828.00" from="32861191#0" to="32860026"/>