<?xml version="1.0" encoding="UTF-8"?>
<configuration>

    <input>
        <net-file value="mailing.net.xml"/>
        <route-files value="mailing.rou.xml"/>
        <additional-files value="mailing.poly.xml"/>
    </input>

    <time>
        <begin value="0"/>
        <end value="3600"/>
        <step-length value="0.1"/>
    </time>

    <processing>
        <time-to-teleport value="300"/>
    </processing>

    <gui_only>
        <start value="true"/>
    </gui_only>

</configuration>
