<?xml version="1.0" encoding="UTF-8"?>

<!-- generated on 12/15/25 00:34:46 by Eclipse SUMO netconvert Version 1.5.0
<configuration xmlns:xsi="http://www.w3.org/2001/XMLSchema-instance" xsi:noNamespaceSchemaLocation="http://sumo.dlr.de/xsd/netconvertConfiguration.xsd">

    <input>
        <osm-files value="mailing_raw.osm"/>
    </input>

    <output>
        <output-file value="mailing.net.xml"/>
    </output>

    <projection>
        <proj.utm value="true"/>
    </projection>

    <tls_building>
        <tls.discard-simple value="true"/>
    </tls_building>

    <edge_removal>
        <keep-edges.by-vclass value="passenger"/>
        <remove-edges.isolated value="true"/>
    </edge_removal>

    <junctions>
        <no-turnarounds.tls value="true"/>
        <junctions.join value="true"/>
    </junctions>

    <report>
        <aggregate-warnings value="5"/>
    </report>

</configuration>
-->

<net version="1.3" junctionCornerDetail="5" limitTurnSpeed="5.50" xmlns:xsi="http://www.w3.org/2001/XMLSchema-instance" xsi:noNamespaceSchemaLocation="http://sumo.dlr.de/xsd/net_file.xsd">

    <location netOffset="-680470.39,-5403814.34" convBoundary="0.00,0.00,3209.95,3124.13" origBoundary="11.456137,48.760188,11.506893,48.788629" projParameter="+proj=utm +zone=32 +ellps=WGS84 +datum=WGS84 +units=m +no_defs"/>

    <type id="highway.bridleway" priority="1" numLanes="1" speed="2.78" allow="pedestrian" oneway="1" width="2.00"/>
    <type id="highway.bus_guideway" priority="1" numLanes="1" speed="27.78" allow="bus" oneway="1"/>
    <type id="highway.cycleway" priority="1" numLanes="1" speed="8.33" allow="bicycle" oneway="0" width="1.00"/>
    <type id="highway.footway" priority="1" numLanes="1" speed="2.78" allow="pedestrian" oneway="1" width="2.00"/>
    <type id="highway.ford" priority="1" numLanes="1" speed="2.78" allow="army" oneway="0"/>
    <type id="highway.living_street" priority="2" numLanes="1" speed="2.78" disallow="tram rail_urban rail rail_electric rail_fast ship" oneway="0"/>
    <type id="highway.motorway" priority="14" numLanes="2" speed="39.44" allow="private emergency authority army vip passenger hov taxi bus coach delivery truck trailer motorcycle evehicle custom1 custom2" oneway="1"/>
    <type id="highway.motorway_link" priority="9" numLanes="1" speed="22.22" allow="private emergency authority army vip passenger hov taxi bus coach delivery truck trailer motorcycle evehicle custom1 custom2" oneway="1"/>
    <type id="highway.path" priority="1" numLanes="1" speed="2.78" allow="pedestrian bicycle" oneway="1" width="2.00"/>
    <type id="highway.pedestrian" priority="1" numLanes="1" speed="2.78" allow="pedestrian" oneway="1" width="2.00"/>
    <type id="highway.primary" priority="12" numLanes="2" speed="27.78" disallow="tram rail_urban rail rail_electric rail_fast ship" oneway="0"/>
    <type id="highway.primary_link" priority="7" numLanes="1" speed="22.22" disallow="tram rail_urban rail rail_electric rail_fast ship" oneway="0"/>
    <type id="highway.raceway" priority="15" numLanes="2" speed="83.33" allow="vip" oneway="0"/>
    <type id="highway.residential" priority="3" numLanes="1" speed="13.89" disallow="tram rail_urban rail rail_electric rail_fast ship" oneway="0"/>
    <type id="highway.secondary" priority="11" numLanes="1" speed="27.78" disallow="tram rail_urban rail rail_electric rail_fast ship" oneway="0"/>
    <type id="highway.secondary_link" priority="6" numLanes="1" speed="22.22" disallow="tram rail_urban rail rail_electric rail_fast ship" oneway="0"/>
    <type id="highway.service" priority="1" numLanes="1" speed="5.56" allow="pedestrian delivery bicycle" oneway="0"/>
    <type id="highway.stairs" priority="1" numLanes="1" speed="1.39" allow="pedestrian" oneway="1" width="2.00"/>
    <type id="highway.step" priority="1" numLanes="1" speed="1.39" allow="pedestrian" oneway="1" width="2.00"/>
    <type id="highway.steps" priority="1" numLanes="1" speed="1.39" allow="pedestrian" oneway="1" width="2.00"/>
    <type id="highway.tertiary" priority="10" numLanes="1" speed="22.22" disallow="tram rail_urban rail rail_electric rail_fast ship" oneway="0"/>
    <type id="highway.tertiary_link" priority="5" numLanes="1" speed="22.22" disallow="tram rail_urban rail rail_electric rail_fast ship" oneway="0"/>
    <type id="highway.track" priority="1" numLanes="1" speed="5.56" disallow="tram rail_urban rail rail_electric rail_fast ship" oneway="0"/>
    <type id="highway.trunk" priority="13" numLanes="2" speed="27.78" disallow="pedestrian bicycle tram rail_urban rail rail_electric rail_fast ship" oneway="0"/>
    <type id="highway.trunk_link" priority="8" numLanes="1" speed="22.22" disallow="pedestrian bicycle tram rail_urban rail rail_electric rail_fast ship" oneway="0"/>
    <type id="highway.unclassified" priority="4" numLanes="1" speed="13.89" disallow="tram rail_urban rail rail_electric rail_fast ship" oneway="0"/>
    <type id="highway.unsurfaced" priority="1" numLanes="1" speed="8.33" disallow="tram rail_urban rail rail_electric rail_fast ship" oneway="0"/>
    <type id="railway.highspeed" priority="21" numLanes="1" speed="69.44" allow="rail_fast" oneway="1"/>
    <type id="railway.light_rail" priority="19" numLanes="1" speed="27.78" allow="rail_urban" oneway="1"/>
    <type id="railway.preserved" priority="16" numLanes="1" speed="27.78" allow="rail" oneway="1"/>
    <type id="railway.rail" priority="20" numLanes="1" speed="44.44" allow="rail" oneway="1"/>
    <type id="railway.subway" priority="18" numLanes="1" speed="27.78" allow="rail_urban" oneway="1"/>
    <type id="railway.tram" priority="17" numLanes="1" speed="13.89" allow="tram" oneway="1"/>

    <edge id=":1014912398_0" function="internal">
        <lane id=":1014912398_0_0" index="0" disallow="tram rail_urban rail rail_electric rail_fast ship" speed="8.33" length="0.31" shape="1532.20,668.63 1532.19,668.32"/>
    </edge>
    <edge id=":1014912398_1" function="internal">
        <lane id=":1014912398_1_0" index="0" disallow="tram rail_urban rail rail_electric rail_fast ship" speed="8.33" length="0.27" shape="1535.39,668.23 1535.40,668.49"/>
    </edge>
    <edge id=":11630777467_0" function="internal">
        <lane id=":11630777467_0_0" index="0" disallow="tram rail_urban rail rail_electric rail_fast ship" speed="8.33" length="0.30" shape="1121.97,984.57 1121.70,984.43"/>
    </edge>
    <edge id=":11630777467_1" function="internal">
        <lane id=":11630777467_1_0" index="0" disallow="tram rail_urban rail rail_electric rail_fast ship" speed="8.33" length="0.30" shape="1123.10,981.56 1123.37,981.69"/>
    </edge>
    <edge id=":12717871632_0" function="internal">
        <lane id=":12717871632_0_0" index="0" disallow="tram rail_urban rail rail_electric rail_fast ship" speed="13.89" length="0.10" shape="1571.96,2476.14 1571.96,2476.14"/>
    </edge>
    <edge id=":12717871632_1" function="internal">
        <lane id=":12717871632_1_0" index="0" disallow="tram rail_urban rail rail_electric rail_fast ship" speed="13.89" length="0.10" shape="1570.96,2473.10 1570.96,2473.10"/>
    </edge>
    <edge id=":12752723280_0" function="internal">
        <lane id=":12752723280_0_0" index="0" disallow="tram rail_urban rail rail_electric rail_fast ship" speed="13.89" length="1.43" shape="1017.92,1425.29 1017.75,1425.68 1017.61,1425.94 1017.45,1426.18 1017.18,1426.51"/>
    </edge>
    <edge id=":12752723280_1" function="internal">
        <lane id=":12752723280_1_0" index="0" disallow="tram rail_urban rail rail_electric rail_fast ship" speed="13.89" length="0.48" shape="1014.72,1424.46 1014.81,1424.35 1014.87,1424.27 1014.91,1424.18 1014.97,1424.05"/>
    </edge>
    <edge id=":12752723282_0" function="internal">
        <lane id=":12752723282_0_0" index="0" disallow="tram rail_urban rail rail_electric rail_fast ship" speed="13.89" length="0.29" shape="1022.19,1415.14 1022.07,1415.41"/>
    </edge>
    <edge id=":12752723282_1" function="internal">
        <lane id=":12752723282_1_0" index="0" disallow="tram rail_urban rail rail_electric rail_fast ship" speed="13.89" length="0.31" shape="1019.12,1414.17 1019.24,1413.89"/>
    </edge>
    <edge id=":12752723290_0" function="internal">
        <lane id=":12752723290_0_0" index="0" disallow="tram rail_urban rail rail_electric rail_fast ship" speed="16.67" length="0.10" shape="1704.08,2210.18 1704.08,2210.18"/>
    </edge>
    <edge id=":12752723290_1" function="internal">
        <lane id=":12752723290_1_0" index="0" disallow="tram rail_urban rail rail_electric rail_fast ship" speed="16.67" length="0.10" shape="1707.04,2208.97 1707.04,2208.98"/>
    </edge>
    <edge id=":12752723291_0" function="internal">
        <lane id=":12752723291_0_0" index="0" disallow="pedestrian bicycle tram rail_urban rail rail_electric rail_fast ship" speed="27.78" length="0.10" shape="1838.36,1720.83 1838.36,1720.83"/>
    </edge>
    <edge id=":12752723291_1" function="internal">
        <lane id=":12752723291_1_0" index="0" disallow="pedestrian bicycle tram rail_urban rail rail_electric rail_fast ship" speed="27.78" length="0.10" shape="1838.85,1717.67 1838.84,1717.67"/>
    </edge>
    <edge id=":12877649214_0" function="internal">
        <lane id=":12877649214_0_0" index="0" disallow="tram rail_urban rail rail_electric rail_fast ship" speed="13.89" length="0.30" shape="1564.81,2710.40 1564.51,2710.40"/>
    </edge>
    <edge id=":12905580982_0" function="internal">
        <lane id=":12905580982_0_0" index="0" disallow="tram rail_urban rail rail_electric rail_fast ship" speed="3.65" length="4.67" shape="1527.78,1759.59 1528.32,1758.25 1529.02,1757.69 1529.88,1757.92 1530.91,1758.93"/>
    </edge>
    <edge id=":12951169852_0" function="internal">
        <lane id=":12951169852_0_0" index="0" disallow="tram rail_urban rail rail_electric rail_fast ship" speed="8.33" length="0.30" shape="1891.21,1306.75 1890.92,1306.84"/>
    </edge>
    <edge id=":12951169852_1" function="internal">
        <lane id=":12951169852_1_0" index="0" disallow="tram rail_urban rail rail_electric rail_fast ship" speed="8.33" length="0.30" shape="1890.02,1303.77 1890.30,1303.68"/>
    </edge>
    <edge id=":13876324_0" function="internal">
        <lane id=":13876324_0_0" index="0" disallow="pedestrian bicycle tram rail_urban rail rail_electric rail_fast ship" speed="19.44" length="8.20" shape="438.54,1271.87 436.14,1271.92 434.51,1272.33 432.87,1272.76 430.47,1272.83"/>
        <lane id=":13876324_0_1" index="1" disallow="pedestrian bicycle tram rail_urban rail rail_electric rail_fast ship" speed="19.44" length="8.20" shape="438.81,1268.68 436.40,1268.73 434.76,1269.14 433.12,1269.57 430.71,1269.64"/>
        <lane id=":13876324_0_2" index="2" disallow="pedestrian bicycle tram rail_urban rail rail_electric rail_fast ship" speed="19.44" length="8.20" shape="438.81,1268.68 436.44,1268.23 434.88,1267.55 433.32,1266.88 430.94,1266.45"/>
    </edge>
    <edge id=":1516302012_0" function="internal">
        <lane id=":1516302012_0_0" index="0" disallow="tram rail_urban rail rail_electric rail_fast ship" speed="6.51" length="9.03" shape="1708.52,1310.16 1707.97,1307.75 1706.79,1306.09 1704.96,1305.18 1702.49,1305.03"/>
    </edge>
    <edge id=":1516302012_1" function="internal">
        <lane id=":1516302012_1_0" index="0" disallow="tram rail_urban rail rail_electric rail_fast ship" speed="8.33" length="14.25" shape="1708.52,1310.16 1708.27,1306.54 1708.11,1303.05 1708.04,1299.56 1708.06,1295.93"/>
    </edge>
    <edge id=":1516302012_2" function="internal">
        <lane id=":1516302012_2_0" index="0" disallow="tram rail_urban rail rail_electric rail_fast ship" speed="3.65" length="4.67" shape="1708.52,1310.16 1709.22,1308.90 1709.99,1308.44 1710.81,1308.78 1711.71,1309.91"/>
    </edge>
    <edge id=":1516302012_3" function="internal">
        <lane id=":1516302012_3_0" index="0" disallow="tram rail_urban rail rail_electric rail_fast ship" speed="8.33" length="13.94" shape="1711.26,1295.99 1711.24,1299.57 1711.30,1302.95 1711.46,1306.33 1711.71,1309.91"/>
    </edge>
    <edge id=":1516302012_4" function="internal">
        <lane id=":1516302012_4_0" index="0" disallow="tram rail_urban rail rail_electric rail_fast ship" speed="8.26" length="14.07" shape="1711.26,1295.99 1710.66,1299.68 1709.00,1302.42 1706.27,1304.20 1702.49,1305.03"/>
    </edge>
    <edge id=":1516302012_5" function="internal">
        <lane id=":1516302012_5_0" index="0" disallow="tram rail_urban rail rail_electric rail_fast ship" speed="3.65" length="4.67" shape="1711.26,1295.99 1710.44,1297.17 1709.63,1297.56 1708.84,1297.14 1708.06,1295.93"/>
    </edge>
    <edge id=":1516302012_6" function="internal">
        <lane id=":1516302012_6_0" index="0" disallow="tram rail_urban rail rail_electric rail_fast ship" speed="6.81" length="9.26" shape="1702.24,1301.84 1704.75,1301.30 1706.56,1300.13 1707.66,1298.34 1708.06,1295.93"/>
    </edge>
    <edge id=":1516302012_7" function="internal">
        <lane id=":1516302012_7_0" index="0" disallow="tram rail_urban rail rail_electric rail_fast ship" speed="8.00" length="14.19" shape="1702.24,1301.84 1706.12,1302.08 1708.99,1303.51 1710.85,1306.12 1711.71,1309.91"/>
    </edge>
    <edge id=":1516302012_8" function="internal">
        <lane id=":1516302012_8_0" index="0" disallow="tram rail_urban rail rail_electric rail_fast ship" speed="3.65" length="4.67" shape="1702.24,1301.84 1703.50,1302.54 1703.96,1303.30 1703.63,1304.13 1702.49,1305.03"/>
    </edge>
    <edge id=":1516302013_0" function="internal">
        <lane id=":1516302013_0_0" index="0" disallow="tram rail_urban rail rail_electric rail_fast ship" speed="13.89" length="0.31" shape="744.31,1274.12 744.26,1274.42"/>
    </edge>
    <edge id=":1516302013_1" function="internal">
        <lane id=":1516302013_1_0" index="0" disallow="tram rail_urban rail rail_electric rail_fast ship" speed="13.89" length="0.22" shape="741.11,1273.85 741.15,1273.63"/>
    </edge>
    <edge id=":1516302015_0" function="internal">
        <lane id=":1516302015_0_0" index="0" disallow="tram rail_urban rail rail_electric rail_fast ship" speed="7.07" length="9.73" shape="1633.39,1316.19 1632.53,1313.53 1631.15,1311.68 1629.25,1310.63 1626.81,1310.38"/>
    </edge>
    <edge id=":1516302015_1" function="internal">
        <lane id=":1516302015_1_0" index="0" disallow="tram rail_urban rail rail_electric rail_fast ship" speed="7.79" length="14.69" shape="1633.39,1316.19 1633.19,1312.10 1634.40,1309.08 1637.00,1307.15 1641.01,1306.29"/>
    </edge>
    <edge id=":1516302015_2" function="internal">
        <lane id=":1516302015_2_0" index="0" disallow="tram rail_urban rail rail_electric rail_fast ship" speed="3.65" length="4.67" shape="1633.39,1316.19 1633.95,1314.86 1634.66,1314.32 1635.52,1314.56 1636.53,1315.58"/>
    </edge>
    <edge id=":1516302015_3" function="internal">
        <lane id=":1516302015_3_0" index="0" disallow="tram rail_urban rail rail_electric rail_fast ship" speed="6.25" length="9.05" shape="1641.23,1309.49 1638.76,1310.01 1637.15,1311.20 1636.41,1313.06 1636.53,1315.58"/>
    </edge>
    <edge id=":1516302015_4" function="internal">
        <lane id=":1516302015_4_0" index="0" disallow="tram rail_urban rail rail_electric rail_fast ship" speed="8.33" length="14.44" shape="1641.23,1309.49 1626.81,1310.38"/>
    </edge>
    <edge id=":1516302015_5" function="internal">
        <lane id=":1516302015_5_0" index="0" disallow="tram rail_urban rail rail_electric rail_fast ship" speed="3.65" length="4.67" shape="1641.23,1309.49 1639.97,1308.77 1639.52,1308.00 1639.87,1307.17 1641.01,1306.29"/>
    </edge>
    <edge id=":1516302015_6" function="internal">
        <lane id=":1516302015_6_0" index="0" disallow="tram rail_urban rail rail_electric rail_fast ship" speed="8.33" length="14.41" shape="1626.63,1307.19 1641.01,1306.29"/>
    </edge>
    <edge id=":1516302015_7" function="internal">
        <lane id=":1516302015_7_0" index="0" disallow="tram rail_urban rail rail_electric rail_fast ship" speed="8.33" length="14.39" shape="1626.63,1307.19 1630.32,1307.54 1633.20,1309.05 1635.27,1311.73 1636.53,1315.58"/>
    </edge>
    <edge id=":1516302015_8" function="internal">
        <lane id=":1516302015_8_0" index="0" disallow="tram rail_urban rail rail_electric rail_fast ship" speed="3.65" length="4.67" shape="1626.63,1307.19 1627.88,1307.92 1628.32,1308.69 1627.97,1309.51 1626.81,1310.38"/>
    </edge>
    <edge id=":1516302020_0" function="internal">
        <lane id=":1516302020_0_0" index="0" disallow="tram rail_urban rail rail_electric rail_fast ship" speed="13.89" length="0.11" shape="736.26,1318.47 736.24,1318.58"/>
    </edge>
    <edge id=":1516302020_1" function="internal">
        <lane id=":1516302020_1_0" index="0" disallow="tram rail_urban rail rail_electric rail_fast ship" speed="13.89" length="0.34" shape="733.06,1318.23 733.11,1317.90"/>
    </edge>
    <edge id=":1516302022_0" function="internal">
        <lane id=":1516302022_0_0" index="0" disallow="tram rail_urban rail rail_electric rail_fast ship" speed="6.48" length="9.03" shape="738.23,1342.00 735.78,1341.57 733.80,1342.04 732.28,1343.40 731.22,1345.64"/>
    </edge>
    <edge id=":1516302022_1" function="internal">
        <lane id=":1516302022_1_0" index="0" disallow="tram rail_urban rail rail_electric rail_fast ship" speed="8.41" length="14.06" shape="738.23,1342.00 734.72,1340.33 732.41,1337.99 731.30,1334.98 731.38,1331.30"/>
    </edge>
    <edge id=":1516302022_2" function="internal">
        <lane id=":1516302022_2_0" index="0" disallow="tram rail_urban rail rail_electric rail_fast ship" speed="3.65" length="2.54" shape="738.23,1342.00 737.33,1340.87 737.20,1339.98 737.34,1339.84"/>
    </edge>
    <edge id=":1516302022_9" function="internal">
        <lane id=":1516302022_9_0" index="0" disallow="tram rail_urban rail rail_electric rail_fast ship" speed="3.65" length="2.14" shape="737.34,1339.84 737.82,1339.34 739.21,1338.95"/>
    </edge>
    <edge id=":1516302022_3" function="internal">
        <lane id=":1516302022_3_0" index="0" disallow="tram rail_urban rail rail_electric rail_fast ship" speed="6.99" length="9.42" shape="734.54,1331.84 734.49,1334.27 735.25,1336.27 736.83,1337.83 739.21,1338.95"/>
    </edge>
    <edge id=":1516302022_4" function="internal">
        <lane id=":1516302022_4_0" index="0" disallow="tram rail_urban rail rail_electric rail_fast ship" speed="13.89" length="14.20" shape="734.54,1331.84 733.87,1335.40 733.12,1338.80 732.24,1342.16 731.22,1345.64"/>
    </edge>
    <edge id=":1516302022_5" function="internal">
        <lane id=":1516302022_5_0" index="0" disallow="tram rail_urban rail rail_electric rail_fast ship" speed="3.65" length="2.07" shape="734.54,1331.84 733.55,1332.89 732.94,1333.07"/>
    </edge>
    <edge id=":1516302022_10" function="internal">
        <lane id=":1516302022_10_0" index="0" disallow="tram rail_urban rail rail_electric rail_fast ship" speed="3.65" length="2.60" shape="732.94,1333.07 732.69,1333.15 731.97,1332.62 731.38,1331.30"/>
    </edge>
    <edge id=":1516302022_6" function="internal">
        <lane id=":1516302022_6_0" index="0" disallow="tram rail_urban rail rail_electric rail_fast ship" speed="13.89" length="13.79" shape="728.16,1344.70 729.17,1341.28 730.01,1338.06 730.73,1334.80 731.38,1331.30"/>
    </edge>
    <edge id=":1516302022_7" function="internal">
        <lane id=":1516302022_7_0" index="0" disallow="tram rail_urban rail rail_electric rail_fast ship" speed="7.98" length="14.25" shape="728.16,1344.70 729.83,1341.16 732.23,1339.02 735.36,1338.29 739.21,1338.95"/>
    </edge>
    <edge id=":1516302022_8" function="internal">
        <lane id=":1516302022_8_0" index="0" disallow="tram rail_urban rail rail_electric rail_fast ship" speed="3.65" length="4.67" shape="728.16,1344.70 729.28,1343.79 730.16,1343.64 730.81,1344.26 731.22,1345.64"/>
    </edge>
    <edge id=":1516302027_0" function="internal">
        <lane id=":1516302027_0_0" index="0" disallow="tram rail_urban rail rail_electric rail_fast ship" speed="6.49" length="9.03" shape="832.67,1371.51 830.23,1371.10 828.25,1371.58 826.73,1372.94 825.68,1375.19"/>
    </edge>
    <edge id=":1516302027_1" function="internal">
        <lane id=":1516302027_1_0" index="0" disallow="tram rail_urban rail rail_electric rail_fast ship" speed="13.89" length="14.41" shape="832.67,1371.51 818.92,1367.20"/>
    </edge>
    <edge id=":1516302027_2" function="internal">
        <lane id=":1516302027_2_0" index="0" disallow="tram rail_urban rail rail_electric rail_fast ship" speed="3.65" length="2.34" shape="832.67,1371.51 831.77,1370.38 831.63,1369.50"/>
    </edge>
    <edge id=":1516302027_9" function="internal">
        <lane id=":1516302027_9_0" index="0" disallow="tram rail_urban rail rail_electric rail_fast ship" speed="3.65" length="2.34" shape="831.63,1369.50 832.25,1368.86 833.64,1368.45"/>
    </edge>
    <edge id=":1516302027_3" function="internal">
        <lane id=":1516302027_3_0" index="0" disallow="tram rail_urban rail rail_electric rail_fast ship" speed="13.89" length="14.42" shape="819.87,1364.15 833.64,1368.45"/>
    </edge>
    <edge id=":1516302027_4" function="internal">
        <lane id=":1516302027_4_0" index="0" disallow="tram rail_urban rail rail_electric rail_fast ship" speed="8.02" length="5.94" shape="819.87,1364.15 823.38,1365.81 824.75,1367.35"/>
    </edge>
    <edge id=":1516302027_5" function="internal">
        <lane id=":1516302027_5_0" index="0" disallow="tram rail_urban rail rail_electric rail_fast ship" speed="3.65" length="2.34" shape="819.87,1364.15 820.78,1365.27 820.93,1366.15"/>
    </edge>
    <edge id=":1516302027_10" function="internal">
        <lane id=":1516302027_10_0" index="0" disallow="tram rail_urban rail rail_electric rail_fast ship" speed="8.02" length="8.27" shape="824.75,1367.35 825.51,1368.21 826.28,1371.33 825.68,1375.19"/>
    </edge>
    <edge id=":1516302027_11" function="internal">
        <lane id=":1516302027_11_0" index="0" disallow="tram rail_urban rail rail_electric rail_fast ship" speed="3.65" length="2.34" shape="820.93,1366.15 820.31,1366.80 818.92,1367.20"/>
    </edge>
    <edge id=":1516302027_6" function="internal">
        <lane id=":1516302027_6_0" index="0" disallow="tram rail_urban rail rail_electric rail_fast ship" speed="6.53" length="9.07" shape="822.62,1374.26 823.01,1371.79 822.52,1369.80 821.16,1368.27 818.92,1367.20"/>
    </edge>
    <edge id=":1516302027_7" function="internal">
        <lane id=":1516302027_7_0" index="0" disallow="tram rail_urban rail rail_electric rail_fast ship" speed="7.98" length="14.23" shape="822.62,1374.26 824.28,1370.72 826.66,1368.57 829.78,1367.82 833.64,1368.45"/>
    </edge>
    <edge id=":1516302027_8" function="internal">
        <lane id=":1516302027_8_0" index="0" disallow="tram rail_urban rail rail_electric rail_fast ship" speed="3.65" length="4.67" shape="822.62,1374.26 823.74,1373.34 824.62,1373.19 825.27,1373.81 825.68,1375.19"/>
    </edge>
    <edge id=":1516302030_0" function="internal">
        <lane id=":1516302030_0_0" index="0" disallow="pedestrian bicycle tram rail_urban rail rail_electric rail_fast ship" speed="27.78" length="0.30" shape="1007.89,1390.97 1007.62,1390.84"/>
        <lane id=":1516302030_0_1" index="1" disallow="pedestrian bicycle tram rail_urban rail rail_electric rail_fast ship" speed="27.78" length="0.30" shape="1009.20,1388.05 1008.93,1387.92"/>
    </edge>
    <edge id=":1516302035_0" function="internal">
        <lane id=":1516302035_0_0" index="0" disallow="pedestrian bicycle tram rail_urban rail rail_electric rail_fast ship" speed="27.78" length="0.30" shape="1048.81,1409.35 1048.55,1409.23"/>
        <lane id=":1516302035_0_1" index="1" disallow="pedestrian bicycle tram rail_urban rail rail_electric rail_fast ship" speed="27.78" length="0.30" shape="1050.14,1406.44 1049.86,1406.31"/>
    </edge>
    <edge id=":1516302037_0" function="internal">
        <lane id=":1516302037_0_0" index="0" disallow="tram rail_urban rail rail_electric rail_fast ship" speed="3.65" length="4.67" shape="1019.45,1413.39 1020.66,1412.60 1021.55,1412.55 1022.13,1413.23 1022.40,1414.64"/>
    </edge>
    <edge id=":1695144073_0" function="internal">
        <lane id=":1695144073_0_0" index="0" disallow="tram rail_urban rail rail_electric rail_fast ship" speed="6.98" length="9.61" shape="894.76,1212.24 892.09,1211.65 889.83,1211.92 888.00,1213.06 886.59,1215.06"/>
    </edge>
    <edge id=":1695144073_1" function="internal">
        <lane id=":1695144073_1_0" index="0" disallow="tram rail_urban rail rail_electric rail_fast ship" speed="7.83" length="14.60" shape="894.76,1212.24 891.17,1210.35 889.17,1207.80 888.77,1204.59 889.98,1200.71"/>
    </edge>
    <edge id=":1695144073_2" function="internal">
        <lane id=":1695144073_2_0" index="0" disallow="tram rail_urban rail rail_electric rail_fast ship" speed="3.65" length="4.67" shape="894.76,1212.24 893.90,1211.09 893.79,1210.20 894.43,1209.58 895.83,1209.23"/>
    </edge>
    <edge id=":1695144073_3" function="internal">
        <lane id=":1695144073_3_0" index="0" disallow="tram rail_urban rail rail_electric rail_fast ship" speed="6.29" length="9.04" shape="892.87,1202.08 892.12,1204.48 892.37,1206.48 893.60,1208.06 895.83,1209.23"/>
    </edge>
    <edge id=":1695144073_4" function="internal">
        <lane id=":1695144073_4_0" index="0" disallow="tram rail_urban rail rail_electric rail_fast ship" speed="8.33" length="14.42" shape="892.87,1202.08 886.59,1215.06"/>
    </edge>
    <edge id=":1695144073_5" function="internal">
        <lane id=":1695144073_5_0" index="0" disallow="tram rail_urban rail rail_electric rail_fast ship" speed="3.65" length="4.67" shape="892.87,1202.08 891.63,1202.82 890.74,1202.84 890.19,1202.13 889.98,1200.71"/>
    </edge>
    <edge id=":1695144073_6" function="internal">
        <lane id=":1695144073_6_0" index="0" disallow="tram rail_urban rail rail_electric rail_fast ship" speed="8.33" length="14.38" shape="883.72,1213.65 889.98,1200.71"/>
    </edge>
    <edge id=":1695144073_7" function="internal">
        <lane id=":1695144073_7_0" index="0" disallow="tram rail_urban rail rail_electric rail_fast ship" speed="8.33" length="14.35" shape="883.72,1213.65 885.85,1210.59 888.57,1208.83 891.90,1208.38 895.83,1209.23"/>
    </edge>
    <edge id=":1695144073_8" function="internal">
        <lane id=":1695144073_8_0" index="0" disallow="tram rail_urban rail rail_electric rail_fast ship" speed="3.65" length="4.67" shape="883.72,1213.65 884.97,1212.93 885.86,1212.92 886.41,1213.63 886.59,1215.06"/>
    </edge>
    <edge id=":1695149564_0" function="internal">
        <lane id=":1695149564_0_0" index="0" disallow="tram rail_urban rail rail_electric rail_fast ship" speed="8.33" length="13.91" shape="1219.78,779.52 1216.32,780.43 1213.08,781.37 1209.87,782.41 1206.50,783.61"/>
    </edge>
    <edge id=":1695149564_1" function="internal">
        <lane id=":1695149564_1_0" index="0" disallow="tram rail_urban rail rail_electric rail_fast ship" speed="7.92" length="14.38" shape="1219.78,779.52 1215.84,779.93 1212.77,778.96 1210.56,776.61 1209.23,772.87"/>
    </edge>
    <edge id=":1695149564_2" function="internal">
        <lane id=":1695149564_2_0" index="0" disallow="tram rail_urban rail rail_electric rail_fast ship" speed="3.65" length="4.67" shape="1219.78,779.52 1218.42,779.04 1217.84,778.36 1218.03,777.49 1219.00,776.42"/>
    </edge>
    <edge id=":1695149564_3" function="internal">
        <lane id=":1695149564_3_0" index="0" disallow="tram rail_urban rail rail_electric rail_fast ship" speed="6.41" length="9.04" shape="1212.37,772.24 1213.21,774.59 1214.59,776.07 1216.52,776.68 1219.00,776.42"/>
    </edge>
    <edge id=":1695149564_4" function="internal">
        <lane id=":1695149564_4_0" index="0" disallow="tram rail_urban rail rail_electric rail_fast ship" speed="8.33" length="14.14" shape="1212.37,772.24 1212.65,776.16 1211.77,779.36 1209.71,781.84 1206.50,783.61"/>
    </edge>
    <edge id=":1695149564_5" function="internal">
        <lane id=":1695149564_5_0" index="0" disallow="tram rail_urban rail rail_electric rail_fast ship" speed="3.65" length="4.67" shape="1212.37,772.24 1211.82,773.57 1211.12,774.13 1210.25,773.89 1209.23,772.87"/>
    </edge>
    <edge id=":1695149564_6" function="internal">
        <lane id=":1695149564_6_0" index="0" disallow="tram rail_urban rail rail_electric rail_fast ship" speed="7.06" length="9.54" shape="1205.39,780.61 1207.51,779.43 1208.86,777.74 1209.44,775.56 1209.23,772.87"/>
    </edge>
    <edge id=":1695149564_7" function="internal">
        <lane id=":1695149564_7_0" index="0" disallow="tram rail_urban rail rail_electric rail_fast ship" speed="8.33" length="14.25" shape="1205.39,780.61 1208.81,779.39 1212.13,778.32 1215.49,777.34 1219.00,776.42"/>
    </edge>
    <edge id=":1695149564_8" function="internal">
        <lane id=":1695149564_8_0" index="0" disallow="tram rail_urban rail rail_electric rail_fast ship" speed="3.65" length="4.67" shape="1205.39,780.61 1206.79,780.94 1207.44,781.55 1207.34,782.44 1206.50,783.61"/>
    </edge>
    <edge id=":1695149565_0" function="internal">
        <lane id=":1695149565_0_0" index="0" disallow="tram rail_urban rail rail_electric rail_fast ship" speed="11.11" length="0.12" shape="1180.25,686.87 1180.13,686.91"/>
    </edge>
    <edge id=":1695149565_1" function="internal">
        <lane id=":1695149565_1_0" index="0" disallow="tram rail_urban rail rail_electric rail_fast ship" speed="11.11" length="0.36" shape="1178.93,683.94 1179.27,683.82"/>
    </edge>
    <edge id=":1695149574_0" function="internal">
        <lane id=":1695149574_0_0" index="0" disallow="tram rail_urban rail rail_electric rail_fast ship" speed="7.79" length="11.77" shape="1083.61,810.49 1080.80,811.33 1078.76,813.01 1077.49,815.52 1077.01,818.86"/>
    </edge>
    <edge id=":1695149574_1" function="internal">