<?xml version="1.0" encoding="UTF-8"?>

<!-- generated on 12/14/25 15:47:24 by Eclipse SUMO duarouter Version 1.5.0
<configuration xmlns:xsi="http://www.w3.org/2001/XMLSchema-instance" xsi:noNamespaceSchemaLocation="http://sumo.dlr.de/xsd/duarouterConfiguration.xsd">

    <input>
        <net-file value="mailing.net.xml"/>
        <route-files value="mailing.trips.xml"/>
    </input>

    <output>
        <output-file value="mailing.rou.xml"/>
        <alternatives-output value="mailing.rou.alt.xml"/>
    </output>

    <report>
        <no-warnings value="true"/>
        <ignore-errors value="true"/>
    </report>

</configuration>
-->

<routes xmlns:xsi="http://www.w3.org/2001/XMLSchema-instance" xsi:noNamespaceSchemaLocation="http://sumo.dlr.de/xsd/routes_file.xsd">
    <vehicle id="0" depart="0.00">
        <route edges="1190319186#2 69685049#0 69685049#1 69685049#2 1320336341 -144655546#1 -144655546#0 -51745097#2 -51745097#1 -51745097#0 -1408873049 -273123309#3 -273123309#2 -273123309#1 -273123309#0"/>
    </vehicle>
    <vehicle id="1" depart="3.00">
        <route edges="138300618 -138300617#7 -138300617#6 -138300617#5 -138300617#4 -138300617#3 -138300617#2 -138300617#1 -138300617#0 1377264642 138300629 306793669 32976752 327975022 1377264640 39704919#0 39704919#1 28091397 542650138 266507547#0 266507547#1 -718828178#3 -718828178#2 -718828178#1 -718828178#0 -201880159#3 -201880159#2 -201880159#1 -201880159#0 25625974 202070431#0 202070431#1 -201789799#1 -201789799#0 -888862237#1 -888862237#0 -30482638#12 -30482638#11 -30482638#10 25640157#0 25640157#1 25640375#0 25640375#1 25640375#2"/>
    </vehicle>
    <vehicle id="2" depart="6.00">
        <route edges="77670297 887476721 110778890 108210906 108210904 32020916#0 32020916#1 77912233 107671230 105482067 32200416 107671228 29027840 77912270 77912237 32200414 887476720 29027839#0 29027839#1 1182776444 1182776443 31343367 29048562#0 29048562#1 29048562#2 32009682 32009683#0 32009683#1 32009683#2 11014139#0 11014139#1 11014139#2 24991573 24991571 64464405 266567306#0 266567306#1 64464408 64464384#0 64464384#1 32009827 266567303 266567294#0 266567294#1 323248164 1285343853#0 1285343853#1 31342064#0 31342064#1 31342064#2 30404127 305495773#0 305495773#1 305495773#2 266507551 266507552#0 266507552#1 266507552#2 48743272 27202149#0 27202149#1 202070427#0 202070427#1 914485587#0 914485587#1 914485587#2 71900674#0 71900674#1 71900674#2 25895864#0 25901706"/>
    </vehicle>
    <vehicle id="3" depart="9.00">
        <route edges="-37192508#2 -37192508#1 -37192508#0 1288037233#10 1288037233#11 40059576#0 -157305700#6 -157305700#5 -157305700#4 -157305700#3 -157305700#2 -157305700#1 -157305700#0 157305703 638602238 138300618 -138300617#7 -138300617#6 37681592#0 37681592#1 37681592#2 37681592#3 37681592#4 37681592#5 37681592#6 37681592#7 37681592#8 39698489 39698490 1265563392#0 1265563392#1 1265563392#2 25794504#0 25794504#1 39861703 -39861704#4 -39861704#3 -39861704#2 -39861704#1 -39861704#0 -45378204#1 -45378204#0 25638614 -32203959#6 -32203959#5 -32203959#4 -32203959#3 -32203959#2 -32203959#1 -32203959#0 -25623139 25638761#5 25638761#6 25638761#7 25638761#8 -27196044#10 -27196044#9 -27196044#8 -27196044#7 -27196044#6 -27196044#5 -27196044#4 -27196044#3 144654970#0 144654970#1"/>
    </vehicle>
    <vehicle id="4" depart="12.00">
        <route edges="-29205272#9 -29205272#8 -29205272#7 -29205272#6 -29205279 -29205273#7 -29205273#6 -29205273#5 -29205273#4 -29205273#3 -29205273#2 -29205273#1 -29205273#0 153220338#0 153220338#1 153220338#2 153220338#3 153220338#4 273123309#0 273123309#1 273123309#2 273123309#3 1408873049 51745097#0 51745097#1 51745097#2 144655546#0 144655546#1 144655546#2 144655546#3 144655546#4 144655546#5 39860602 39860603#0 39860603#1 41522167#0 41522167#1 41522167#2 41522167#3 41522167#4 32140444#0 32140444#1 32140444#2 32140444#3 -26135510#1"/>
    </vehicle>
    <vehicle id="5" depart="15.00">
        <route edges="-817127206 -35779588#1 -35779588#0 -60064938#3 -60064938#2 -60064938#1 -60064938#0 25625950#0 25625950#1 391029007#0 391029007#1 391029008#0 391029008#1 391029008#2 1285649387#0 1285649387#1 1285649387#2 4942575#0 4942575#1 4942575#2 4942575#3 4942575#4 4942575#5 4942575#6 4942575#7 31342349#0 31342349#1 31342349#2 31342349#3 1286768660#0 1286768660#1 1285649383#0 1285649383#1 1285649383#2 1285649383#3 542727960#0 542727960#1 542727960#2 30399316 1220586862#0 1220586862#1 1220586862#2 1042557959#0 1042557959#1 1042557959#2 1042557959#3 1042557959#4 1408873049 51745097#0 51745097#1 51745097#2 144655546#0 144655546#1 -1320336341 -69685049#2 -69685049#1 -69685049#0 -1190319186#2 -1190319186#1 -1190319186#0 -69685051#1 -69685051#0 293162564#0 293162564#1 293162564#2 293162564#3 293162564#4 293162564#5 293162564#6 293162564#7 -4942659 -981834870 -25344542#4 -25344542#3 -25344542#2 -25344542#1 -25344542#0 25344542#0 25344542#1 25344542#2"/>
    </vehicle>
    <vehicle id="6" depart="18.00">
        <route edges="51856495#2 51856495#3 891497946#0 891497946#1 891497946#2 29458096#0 -29458096#0 -891497946#2 -891497946#1 -891497946#0 -51856495#3 -51856495#2 -51856495#1 -51856495#0 -31343381#1 -31343381#0 -815662202 -29458097#2 -29458097#1 -29458097#0 1084717759#0 1084717759#1 1084717759#2 1084717759#3 24972185#0 24972185#1 24972185#2 24972185#3 24972185#4 24972185#5 24972185#6 24972185#7 24972185#8 24972185#9 29048562#0 29048562#1 29048562#2 32009682 32009683#0 32009683#1 32009683#2 11014139#0 11014139#1 11014139#2 24991573 24991571 64464405 266567306#0 266567306#1 64464408 64464384#0 64464384#1 32009827 266567303 266567294#0 266567294#1 323248164 1285343853#0 1285343853#1 31342064#0 31342064#1 31342064#2 30404127 305495773#0 305495773#1 305495773#2 266507551 266507552#0 266507552#1 266507552#2 31021475#0 31021475#1 718828182 914485586#0 914485586#1 914485586#2 914485586#3 914485586#4 914485586#5 914485586#6 914485586#7 914485586#8 914485586#9 914485586#10 914485586#11 914485586#12 914485586#13 914485586#14 914485586#15 914485586#16 914485586#17 914485586#18 914485586#19 201789794#0 201789794#1 201789794#2 201789794#3 201789794#4 308849647#0 308849647#1 266507550#0 266507550#1 266507550#2 30320943 378466167 266507548 266507549 1377264638 32976755 327975020 327975024 327975019 28132017 32976751 306793670#0 306793670#1 146973241 -4826080 23125141 23125142 1394142295 10941814 26224442 -1377264645 -620167544 -39603434 -146973218#8 -146973218#7 -146973218#6 -146973218#5 -146973218#4 -146973218#3 -146973218#2 -146973218#1 -146973218#0 -888446133 -888446136#2 -888446136#1 -888446136#0 -23258631#24 -23258631#23 -23258631#22 -23258631#21 -23258631#20 -23258631#19 -23258631#18 131700651#0 131700651#1 131700651#2"/>
    </vehicle>
    <vehicle id="7" depart="21.00">
        <route edges="-24537982#3 24537982#3 266565302#0 266565302#1 836209352 836209359#0 836209359#1 -266567307#1 -266567307#0 -30404124 30417892 266567308#0 266567308#1 266567308#2 64464421 64464428 32009827 266567303 266567294#0 266567294#1 323248164 1285343853#0 1285343853#1 31342064#0 31342064#1 31342064#2 30404127 305495773#0 305495773#1 305495773#2 266507551 266507552#0 266507552#1 266507552#2 31021475#0 31021475#1 718828182 914485586#0 914485586#1 914485586#2 914485586#3 914485586#4 914485586#5 914485586#6 914485586#7 914485586#8 914485586#9 914485586#10 914485586#11 914485586#12 914485586#13 914485586#14 914485586#15 914485586#16 914485586#17 914485586#18 914485586#19 201789794#0 201789794#1 201789794#2 201789794#3 201789794#4 308849647#0 308849647#1 266507550#0 266507550#1 266507550#2 30320943 378466167 266507548 266507549 1377264638 32976755 327975020 327975024 327975019 146973189 195073416 195073418#0 195073418#1 266507539 27392718 27392719 4058141 266507533"/>
    </vehicle>
    <vehicle id="8" depart="24.00">
        <route edges="4942408#2 54858973#0 54858973#1 54858973#2 -25367735 1182776449#0 1182776449#1 1042557957 542635729#0 542635729#1 542635729#2 1286768661#0 1286768661#1 1286768661#2 1286768661#3 1286768661#4 1286768661#5 31342347#0 31342347#1 31342347#2 31342347#3 31342350#0 31342350#1 31342350#2 31342350#3 31342350#4 31342350#5 31342350#6 1285649386#0 1285649386#1 1285649386#2 391208990#0 391208990#1 391029009#0 391029009#1 391029009#2 726514451#0 726514451#1 726514451#2 726514451#3 726514451#4 726514451#5 61318930#0 61318930#1 61318930#2 61318930#3 61318930#4 193384412#0 193384412#1"/>
    </vehicle>
    <vehicle id="9" depart="27.00">
        <route edges="-1207821130 -273123311#3 -273123311#2 -29205444#2 -29205444#1 -29205444#0 306240161#1 1190319199 1286393567#0 1286393567#1 1286393568 1286397378 1286397377#0 1286397377#1 1286397377#2 1286393563#0 1286393563#1 1286393563#2 69685049#0 69685049#1 69685049#2 1320336341 -144655546#1 -144655546#0 -51745097#2 -51745097#1 -51745097#0 -1408873049 -1042557959#4 -1042557959#3 -1042557959#2 -1042557959#1 -1042557959#0 -1220586862#2 -1220586862#1 -1220586862#0 -30399316 -542727960#2 -542727960#1 -542727960#0 -28091399 -54858974#2 -54858974#1 -54858974#0 -1081006827#1 -1081006827#0 -152077572#1 -152077572#0 -29238188#4 -29238188#3 -29238188#2 -29238188#1 -29238188#0 -914485585#4 -914485585#3 -914485585#2 -914485585#1 -914485585#0 -137463478 25796398#0 25796398#1 25796398#2 449057061 31894763#0 31894763#1 137463475 914485584#0 914485584#1 116765457 1186977745#0 1186977745#1 814691982 28132014#0 28132014#1 28132014#2 25597196#0 25597196#1 1186977746#0 1186977746#1 1186977746#2 1186977746#3 1186977746#4 1186977746#5 1186977746#6 1186977746#7 1186977746#8 1186977746#9 718828183#0 718828183#1 718828183#2 718828183#3 718828183#4"/>
    </vehicle>
    <vehicle id="10" depart="30.00">
        <route edges="25380714#1 25380714#2 -1186977746#2 -1186977746#1 -1186977746#0 -25597196#1 -25597196#0 -28132014#2 -28132014#1 -28132014#0 -814691982 -1186977745#1 -1186977745#0 -116765457 -914485584#1 -914485584#0 -137463475 137463477#0 137463477#1 137463477#2 449059691 25902677#0 25902677#1 1285343851 137463478 914485585#0 914485585#1 914485585#2 914485585#3 914485585#4 29238188#0 29238188#1 29238188#2 29238188#3 29238188#4 152077572#0 152077572#1 1081006827#0 1081006827#1 54858974#0 54858974#1 54858974#2 28091399 542727960#0 542727960#1 542727960#2 30399316 1220586862#0 1220586862#1 1220586862#2 1042557959#0 1042557959#1 1042557959#2 1042557959#3 1042557959#4 1408873049 51745097#0 51745097#1 51745097#2 144655546#0 144655546#1 -1320336341 -69685049#2 -69685049#1 -69685049#0 -1286393563#2 -1286393563#1 -1286393563#0 -1286397377#2 -1286397377#1 -1286397377#0 -1286397378 -1286393568 -1286393567#1 -1286393567#0 -1190319199 -306240161#1 -306240161#0 -1204730983 1285343848 64442509#0 64442509#1 1189562536 128070690 229018941 128070666#0 128070666#1 128070666#2"/>
    </vehicle>
    <vehicle id="11" depart="33.00">
        <route edges="124194339#0 124194339#1 124194339#2 -124194339#2 -124194339#1 -124194339#0 -29205273#9 -29205273#8 -29205273#7 -29205273#6 -29205273#5 -29205273#4 -29205273#3 -29205273#2 -29205273#1 -29205273#0 -1268833960#3 -1268833960#2 -1268833960#1 -1268833960#0 31342349#0 31342349#1 31342349#2 31342349#3 1286768660#0 1286768660#1 1285649383#0 1285649383#1 1285649383#2 1285649383#3 4942408#0 4942408#1 4942408#2 54858973#0 54858973#1 54858973#2 1042557958 978455271 4942407 29119850 978455274 914222952 837030935 30399326#0 30399326#1 1102318927 -137246371 -1094722127 -138002149#1 -138002149#0 -1092460659 -25316932#2 -25316932#1 -25316932#0 -1081560145 -988099049#2 -988099049#1 -988099049#0"/>
    </vehicle>
    <vehicle id="12" depart="36.00">
        <route edges="-413332605#2 -413332605#1 -413332605#0 25705489#0 26224444#0 26224444#1 146973218#1 146973218#2 146973218#3 146973218#4 146973218#5 146973218#6 146973218#7 146973218#8 39603434 620167544 1377264645 -26224442 -10941814 146973256 39603437 32976551 1193277576 306793669 32976752 327975022 1377264639 39704920 151167740 266507555 266507554#0 266507554#1 266507556 266507557 1215636076#0 1215636076#1 1215636076#2 1215636076#3 1215636076#4 172368742 542650763#0 542650763#1 542650763#2 726514450#0 726514450#1 391029008#0 391029008#1 391029008#2 1285649387#0 1285649387#1 1285649387#2 -202070426 -1285649385#2 -1285649385#1 -1285649385#0"/>
    </vehicle>
    <vehicle id="13" depart="39.00">
        <route edges="149045269#1 149045269#2 1311418311#0 1311418311#1 1311418311#2 1311418311#3 1311418311#4 1311418311#5 -25596974#2 -25596974#1 -25596974#0 -41139095 -25596851#6"/>
    </vehicle>
    <vehicle id="14" depart="42.00">
        <route edges="25901651#3 25901651#4 25901651#5 29027727#5 29027727#6 152077572#0 152077572#1 1081006827#0 1081006827#1 54858974#0 54858974#1 54858974#2 1286768661#0 1286768661#1 1286768661#2 1286768661#3 1286768661#4 1286768661#5 31342347#0 31342347#1 31342347#2 31342347#3 31342350#0 31342350#1 31342350#2 31342350#3 31342350#4 31342350#5 31342350#6 1285649386#0 1285649386#1 1285649386#2 202070426 1285649384#0 1285649384#1 1285649384#2 97304242#0 97304242#1 97304242#2 97304242#3 97304242#4 97304242#5 97304242#6 97304242#7 97304242#8 97304242#9 1266860836#0 1266860836#1 1266860836#2 1266860835#0 1266860835#1 39861707 39861708#0 39861708#1 39861708#2 -32140253#2 -32140253#1 -32140253#0 -32140255 -51743953#3 -51743953#2 51743953#2"/>
    </vehicle>
    <vehicle id="15" depart="45.00">
        <route edges="-1176872561 24982784#1 24982784#2 24982784#3 145069272 991657925 145069362#0 145069362#1 145069362#2 107677354#0 107677354#1 77670297 887476721 110778890 108210906 108210904 32020916#0 32020916#1 77912233 107671230 105482067 32200416 107671228 29027840 77912270 77912237 32200414 887476720 29027839#0 29027839#1 1182776444 1182776443 31343367 29048562#0 29048562#1 29048562#2 32009682 32009683#0 32009683#1 32009683#2 11014139#0 11014139#1 11014139#2 24991573 24991571 64464405 266567306#0 266567306#1 64464408 64464384#0 64464384#1 32009827 266567303 266567294#0 266567294#1 323248164 1285343853#0 1285343853#1 31342064#0 31342064#1 31342064#2 30404127 305495773#0 305495773#1 305495773#2 266507551 266507552#0 266507552#1 266507552#2 48743272 27202149#0 27202149#1 202070427#0 202070427#1 914485587#0 914485587#1 914485587#2 33280103#0 33280103#1 33280103#2 33280103#3 33280103#4 33280103#5 1285649385#0 1285649385#1 1285649385#2 202070426 1285649384#0 1285649384#1 1285649384#2 97304242#0 97304242#1 97304242#2 97304242#3 97304242#4 97304242#5 97304242#6 97304242#7 28133141 27761238#3"/>
    </vehicle>
    <vehicle id="16" depart="48.00">
        <route edges="1081560145 25316932#0 25316932#1 25316932#2 1092460659 138002149#0 138002149#1 1094722127 137246371 837030943 837030945#0 837030945#1 837030952 837030949 914485592#0 914485592#1 914485592#2 1177042895 24890429 914222955 914222956 726514445 -726514446#5 -726514446#4 -726514446#3 -726514446#2 -726514446#1 -726514446#0 -1377416007 1066379886#0 1066379886#1 1377416013 1377416009 140684000 380273341 836209351 1377416006 836209362 836209361 836209359#0 836209359#1 -266567307#1 -266567307#0 -30404124 30417892 266567308#0 266567308#1 266567308#2 64464421 64464428 32009827 266567303 266567294#0 266567294#1 323248164 1285343853#0 1285343853#1 31342064#0 31342064#1 31342064#2 30404127 305495773#0 305495773#1 305495773#2 266507551 266507552#0 266507552#1 266507552#2 31021475#0 31021475#1 718828182 914485586#0 914485586#1 914485586#2 914485586#3 914485586#4 914485586#5 914485586#6 914485586#7 914485586#8 914485586#9 914485586#10 914485586#11 914485586#12 914485586#13 914485586#14 914485586#15 914485586#16 914485586#17 914485586#18 914485586#19 201789794#0 201789794#1 201789794#2 201789794#3 201789794#4 308849647#0 308849647#1 266507550#0 266507550#1 266507550#2 201789795#0 201789795#1 201789795#2 31620259 36291830#0 36291830#1 36291830#2 -726514453#5 -726514453#4 -726514453#3"/>
    </vehicle>
    <vehicle id="17" depart="51.00">
        <route edges="41522167#4 32140444#0 -32140444#0 -41522167#4 -41522167#3 -41522167#2 -41522167#1 -41522167#0 -39860603#1 -39860603#0 -39860602 -144655546#5 -144655546#4 -144655546#3 -144655546#2 -144655546#1 -144655546#0 -51745097#2 -51745097#1 -51745097#0 -1408873049 -273123309#3 -273123309#2 -273123309#1 -273123309#0 -153220338#4 -153220338#3 -153220338#2 -153220338#1 -153220338#0 29205273#0 29205273#1 25616922#0"/>
    </vehicle>
    <vehicle id="18" depart="54.00">
        <route edges="-25640149#0 -25640148#1 -25640148#0 92026769#15 -25640150#1 -25640150#0 -30482638#2 -30482638#1 -30482638#0 1328066224#0 1328066224#1 201926266 -54154921#5 -54154921#4 -54154921#3 -54154921#2 -54154921#1 -54154921#0 -42745461#1 -42745461#0 -42745460 -28132014#2 -28132014#1 -28132014#0 -814691982 -1186977745#1 -1186977745#0 -116765457 -914485584#1 -914485584#0 -137463475 137463477#0 137463477#1 137463477#2 449059691 11014140 305390325#0 305390325#1 305390325#2 305390325#3 266567304#0 266567304#1 266567304#2 266567301 814691986 64464420 25955089 844743950 64464399#0 64464399#1 64464414#0 64464414#1 64464432#0 64464432#1 814691990 -24991571 -24991573 -11014139#2 -11014139#1 -11014139#0 950185007#0 950185007#1 950185007#2"/>
    </vehicle>
    <vehicle id="19" depart="57.00">
        <route edges="-137463474#0 137463478 914485585#0 914485585#1 -32202927#3 -32202927#2 -32202927#1 -32202927#0 -25638527 25796388 -32202764"/>
    </vehicle>
    <vehicle id="20" depart="60.00">
        <route edges="-171007013#4 -171007013#3 -171007013#2 -171007013#1 -171007013#0 -146973236#0 -54154969#4 -54154969#3 -54154969#2 -54154969#1 -54154969#0 -54154971 -40059576#1 -40059576#0 -1288037233#11 -1288037233#10 -1288037233#9 -1288037233#8 -1288037233#7 -1288037233#6 -1288037233#5 -1288037233#4 -1288037233#3 -1288037233#2 -1288037233#1 -1288037233#0 -1288037232 10941820#0 10941820#1 201880159#0 201880159#1 201880159#2 201880159#3 718828178#0 718828178#1 718828178#2 718828178#3 -266507550#2 -266507550#1 -266507550#0 -308849647#1 -308849647#0 -201789794#4 -201789794#3 -201789794#2 -201789794#1 -201789794#0 -914485586#19 -914485586#18 -914485586#17 -914485586#16 -914485586#15 -914485586#14 -914485586#13 -914485586#12 -914485586#11 -914485586#10 -914485586#9 -914485586#8 -914485586#7 -914485586#6 -914485586#5 -914485586#4 -914485586#3 -914485586#2 -914485586#1 -914485586#0 -718828182 151167728#0 151167728#1 257907859#0 257907859#1 257907859#2 28132016 257907860#0 257907860#1 814691984 1285343852#0 1285343852#1 1285343852#2 11014140 305390325#0 305390325#1 305390325#2 305390325#3 266567304#0 266567304#1 266567304#2 266567301 814691986 64464420 25955089 844743950 32009826 836213530 31342305 30404124 266567307#0 266567307#1 836209349#0 836209349#1 836209349#2 836209356 836209363#0 836209363#1 266565299 266565295#0 266565295#1 266565295#2 266565295#3 266565295#4 266565295#5 266565295#6 266565295#7 266565295#8 25955175#0 24608842#0 24608843#0 24608843#1 24608843#2 24608843#3 -24608843#3"/>
    </vehicle>
    <vehicle id="21" depart="63.00">
        <route edges="-274823622#2 -274823622#1 -274823622#0 -31342351#2 -31342351#1 -31342351#0 -25340904 31342349#0 31342349#1 31342349#2 31342349#3 1286768660#0 1286768660#1 1285649383#0 1285649383#1 1285649383#2 1285649383#3 542727960#0 542727960#1 542727960#2 30399316 1220586862#0 1220586862#1 1220586862#2 1042557959#0 1042557959#1 1042557959#2 1042557959#3 1042557959#4 1408873049 51745097#0 51745097#1 51745097#2 144655546#0 144655546#1 -1320336341 -69685049#2 -69685049#1 -69685049#0 -1190319186#2 -1190319186#1 -1190319186#0 -69685051#1 -69685051#0 293162564#0 293162564#1 293162564#2 293162564#3 293162564#4 293162564#5 293162564#6 293162564#7 170398274#0 170398274#1 170398274#2 170398274#3 103671270 103671264 136900855 32883444#0 32883444#1"/>
    </vehicle>
    <vehicle id="22" depart="66.00">
        <route edges="201414945#5 -201414945#5 -201414945#4 -201414945#3 -201414945#2 -201414945#1 -201414945#0 -1408873048 -201828014#8 -201828014#7 -201828014#6 -201828014#5 -201828014#4 -201828014#3 -201828014#2 -201828014#1 -201828014#0 -32008983 -32141019 -144655547#11 -144655547#10 -144655547#9 -144655547#8 -144655547#7 -144655547#6 -144655547#5 -144655547#4 -144655547#3 -144655547#2 -144655547#1 -144655547#0 -150746347#6 -150746347#5 -150746347#4 -150746347#3 -150746347#2 -150746347#1 -150746347#0 -39860603#1 -39860603#0 -39860602 -144655546#5 -144655546#4 -144655546#3 -144655546#2 -144655546#1 -144655546#0 -51745097#2 -51745097#1 -51745097#0 -1408873049 -1042557959#4 -1042557959#3 -1042557959#2 -1042557959#1 -1042557959#0 -1220586862#2 -1220586862#1 -1220586862#0 -30399316 -542727960#2 -542727960#1 -542727960#0 -28091399 -54858974#2 -54858974#1 -54858974#0 -1081006827#1 -1081006827#0 -152077572#1 -152077572#0 -29238188#4 -29238188#3 -29238188#2 -29238188#1 -29238188#0 -914485585#4 -914485585#3 -914485585#2 -914485585#1 -914485585#0 -137463478 25796398#0 25796398#1 25796398#2 449057061 30404127 305495773#0 305495773#1 305495773#2 266507551 85564606#0 85564606#1 85564606#2 -1215634477#4 -1215634477#3 -25640093#5 -25640093#4 25640097#0 25640097#1 110435734#0 110435734#1"/>
    </vehicle>
    <vehicle id="23" depart="69.00">
        <route edges="51856492#2 29027839#0 29027839#1 1182776444 1182776443 31343367 29048562#0 29048562#1 29048562#2 32009682 32009683#0 32009683#1 32009683#2 11014139#0 11014139#1 11014139#2 24991573 24991571 64464405"/>
    </vehicle>
    <vehicle id="24" depart="72.00">
        <route edges="-144659492#8 -144659492#7 -144659492#6 -144659492#5 -144659492#4 -144659492#3 -144659492#2 -144659492#1 -144659492#0 32020916#0 32020916#1 77912233 107671230 105482067 32200416 107671228 29027840 77912270 77912237 32200414 887476720 29027839#0 29027839#1 1182776444 1182776443 31343367 29048562#0 29048562#1 29048562#2 32009682 32009683#0 32009683#1 32009683#2 11014139#0 11014139#1 11014139#2 24991573 24991571 64464405 266567306#0 266567306#1 64464408 64464384#0 64464384#1 32009827 266567303 266567294#0 266567294#1 323248164 1285343853#0 1285343853#1 31342064#0 31342064#1 31342064#2 31894763#0 31894763#1 137463475 914485584#0 914485584#1 116765457 1186977745#0 1186977745#1 814691982 28132014#0 28132014#1 28132014#2 42745460 42745461#0 42745461#1 54154921#0 54154921#1 54154921#2 54154921#3 54154921#4 54154921#5 -201926266 -1328066224#1 -1328066224#0 30482638#0 30482638#1 30482638#2 30482638#3 30482638#4 30482638#5 30482638#6 30482638#7 30482638#8 30482638#9 30482638#10 30482638#11 30482638#12 888862237#0 888862237#1 201789799#0 201789799#1 201789798 1288037234 202070435 1288037232 1288037233#0"/>
    </vehicle>
    <vehicle id="26" depart="78.00">
        <route edges="32509968#4 28161027 28161026#1 28161026#2 28161026#3 28161026#4 28161026#5 28161026#6 32021365#0 32021365#1 32021365#2 32021365#3 32021365#4 31021477#0 31021477#1 31021477#2 31021477#3 31021477#4 -39861708#2 -39861708#1 -39861708#0 -39861707 -1266860835#1 -1266860835#0 -1266860836#2 -1266860836#1 -1266860836#0 -97304242#9 -97304242#8 -97304242#7 -97304242#6 -97304242#5 -97304242#4 -97304242#3 -97304242#2 -97304242#1 -97304242#0 -1285649384#2 -1285649384#1 -1285649384#0 -202070426 -1285649385#2 -1285649385#1 -1285649385#0 -33280103#5 -33280103#4 -33280103#3 -33280103#2 -33280103#1 -33280103#0 814691985#0 814691985#1 26180729 175761129#0 175761129#1 175761129#2 175761129#3 175761129#4 175761129#5 175761129#6 175761129#7 175761129#8 914485586#7 914485586#8 914485586#9 914485586#10 914485586#11 914485586#12 -25597372#2 -25597372#1 -25597372#0 -1311418311#4"/>
    </vehicle>
    <vehicle id="27" depart="81.00">
        <route edges="891288448 192771013 -192771013 -891288448 -1207821131 -891288449#1 -891288449#0 -1207821130 -273123311#3 -273123311#2 -29205444#2 -29205444#1 -29205444#0 306240161#1 1190319199 1286393567#0 1286393567#1 1286393568 1286397378 1286397377#0 1286397377#1 1286397377#2 1286393563#0 1286393563#1 1286393563#2 69685049#0 69685049#1 69685049#2 1320336341 -144655546#1 -144655546#0 -51745097#2 -51745097#1 -51745097#0 -1408873049 -1042557959#4 -1042557959#3 -1042557959#2 -1042557959#1 -1042557959#0 -1220586862#2 -1220586862#1 -1220586862#0 -30399316 -542727960#2 -542727960#1 -542727960#0 -28091399 -54858974#2 -54858974#1 -54858974#0 -1081006827#1 -1081006827#0 -152077572#1 -152077572#0 -29238188#4 -29238188#3 -29238188#2 -29238188#1 -29238188#0 -914485585#4 -914485585#3 914485585#3 914485585#4"/>
    </vehicle>
    <vehicle id="28" depart="84.00">
        <route edges="-148050453#0 266565295#2 266565295#3 266565295#4 148050448#0 148050448#1 148050448#2 148050448#3 306431310#0 306431310#1 148050455 837030942#0 837030942#1 837030956 914485592#0 914485592#1 914485592#2 1177042895 978455273#0 978455273#1 1021661436 1186322207 116687469 30399325 30399322 978455272#0 978455272#1 1182776449#0 1182776449#1 1042557957 542635729#0 542635729#1 542635729#2 1286768661#0 1286768661#1 1286768661#2 1286768661#3 1286768661#4 1286768661#5 31342347#0 31342347#1 31342347#2 31342347#3 31342350#0 31342350#1 144657087#0 144657087#1 -144657087#1"/>
    </vehicle>
    <vehicle id="29" depart="87.00">
        <route edges="108310252#0 -108310252#0 -104236369 -104236367 -108310253 -108239938 -888058431 -29458096#3 -29458096#2 -29458096#1 -29458096#0 -891497946#2 -891497946#1 -891497946#0 -51856495#3 -51856495#2 -51856495#1 -51856495#0 -31343381#1 -31343381#0 -815662202 -29458097#2 -29458097#1 -29458097#0 1084717759#0 1084717759#1 1084717759#2 1084717759#3 24972185#0 24972185#1 24972185#2 24972185#3 24972185#4 24972185#5 24972185#6 24972185#7 24972185#8 24972185#9 1389763707#0 1389763707#1 1389763707#2 24537982#0 24537982#1 24537982#2 24537982#3 266565302#0 266565302#1 836209352 836209358 892103979 1066379883 1377416011 1066379885 1286608599 165520703#0 165520703#1 165520703#2 165520703#3 165520703#4 165520703#5"/>
    </vehicle>
    <vehicle id="30" depart="90.00">
        <route edges="-28132749#2 -28132749#1 158180482#0 158180482#1 158180482#2 -28132718#1 -28132718#0 4061708 542650763#0 542650763#1 542650763#2 726514450#0 726514450#1 391029008#0 391029008#1 391029008#2 1285649387#0 1285649387#1 1285649387#2 4942575#0 4942575#1 4942575#2 4942575#3 4942575#4 4942575#5 4942575#6 4942575#7 31342349#0 31342349#1 31342349#2 31342349#3 1286768660#0 1286768660#1 1285649383#0 1285649383#1 1285649383#2 1285649383#3 542727960#0 542727960#1 542727960#2 30399316 1220586862#0 1220586862#1 1220586862#2 1042557959#0 1042557959#1 1042557959#2 1042557959#3 1042557959#4 1408873049 51745097#0 51745097#1 51745097#2 144655546#0 144655546#1 -1320336341 -69685049#2 -69685049#1 -69685049#0 -1286393563#2 -1286393563#1 -1286393563#0 -1286397377#2 -1286397377#1 -1286397377#0 -1286397378 -1286393568 -1286393567#1 -1286393567#0 -1190319198 -1286397379 -1193274669 -1285343849 -1286397380 -24537805 -1188114154#3 -1188114154#2 -1188114154#1 -1188114154#0"/>
    </vehicle>
    <vehicle id="31" depart="93.00">
        <route edges="-817127205 -35779588#0 -60064938#3 -60064938#2 -60064938#1 -60064938#0 25625950#0 25625950#1 391029007#0 391029007#1 391029008#0 391029008#1 391029008#2 1285649387#0 1285649387#1 1285649387#2 -202070426 -1285649385#2 -1285649385#1 -1285649385#0 -33280103#5 -33280103#4 -33280103#3 -33280103#2 -33280103#1 -33280103#0 814691985#0 814691985#1 814691985#2 814691985#3 914485589 930423068#0 930423068#1 930423068#2 257907860#0 257907860#1 814691984 1285343852#0 1285343852#1 1285343852#2 11014140 305390325#0 305390325#1 305390325#2 305390325#3 266567304#0 266567304#1 266567304#2 266567301 814691986 64464420 25955089 844743950 64464399#0 64464399#1 64464414#0 64464414#1 64464432#0 64464432#1 814691990 -24991571 -24991573 -11014139#2 -11014139#1 -11014139#0 -32009683#2 -32009683#1 -32009683#0 -32009682 -29048562#2 -29048562#1 -29048562#0 -24972185#9 -24972185#8 -24972185#7 -24972185#6 -24972185#5 -24972185#4 -24972185#3 -24972185#2 -24972185#1 -24972185#0 -1084717759#3 -1084717759#2 -1084717759#1 -1084717759#0 29458097#0 29458097#1 29458097#2 815662202 31343381#0 31343381#1 51856495#0 51856495#1 51856495#2 51856495#3 891497946#0 891497946#1 891497946#2 29458096#0 29458096#1 29458096#2 29458096#3 888058431"/>
    </vehicle>
    <vehicle id="32" depart="96.00">
        <route edges="25596851#0 25596851#1 25596851#2 25596851#3 -151167720#2 -151167720#1 -151167720#0 -201789799#0 -888862237#1 -888862237#0 -1308822736#3 -1308822736#2 -1308822736#1 -1308822736#0 -32350901#4 -32350901#3 -32350901#2 -32350901#1 -32350901#0 118607487#0 118607487#1 118607487#2 118607487#3 118607487#4 118607487#5 118607487#6 118607487#7 118607487#8 118607487#9 118607487#10 118607487#11 118607487#12 118607487#13 118607487#14 118607487#15 31361632 -31361632 -118607487#15 -118607487#14 -118607487#13 -118607487#12 -118607487#11 -118607487#10 -118607487#9 -118607487#8 -118607487#7 -118607487#6"/>
    </vehicle>
    <vehicle id="33" depart="99.00">
        <route edges="1081560145 25316932#0 25316932#1 25316932#2 1092460659 138002149#0 138002149#1 1094722127 137246371 837030943 837030945#0 837030945#1 837030952 837030949 914485592#0 914485592#1 914485592#2 1177042895 24890429 914222955 914222956 726514445 -726514446#5 -726514446#4 -726514446#3 -726514446#2 -726514446#1 -726514446#0 -1377416007 1066379886#0 1066379886#1 1377416013 1377416009 140684000 1066379881 1377416010 1377416012#0 1377416012#1"/>
    </vehicle>
    <vehicle id="34" depart="102.00">