<?xml version="1.0" encoding="UTF-8"?>

<!-- generated on 12/15/25 00:59:23 by Eclipse SUMO polyconvert Version 1.5.0
<configuration xmlns:xsi="http://www.w3.org/2001/XMLSchema-instance" xsi:noNamespaceSchemaLocation="http://sumo.dlr.de/xsd/polyconvertConfiguration.xsd">

    <input>
        <net-file value="mailing.net.xml"/>
        <osm-files value="mailing_raw.osm"/>
    </input>

    <output>
        <output-file value="mailing.poly.xml"/>
    </output>

    <processing>
        <poi-layer-offset value="5"/>
    </processing>

</configuration>
-->

<additional xmlns:xsi="http://www.w3.org/2001/XMLSchema-instance" xsi:noNamespaceSchemaLocation="http://sumo.dlr.de/xsd/additional_file.xsd">
    <location netOffset="-680470.39,-5403814.34" convBoundary="0.00,-20.26,3749.64,3124.13" origBoundary="11.456137,48.760188,11.506893,48.788629" projParameter="+proj=utm +zone=32 +ellps=WGS84 +datum=WGS84 +units=m +no_defs"/>

    <poly id="1011540034" type="building" color="255,230,230" fill="1" layer="-1.00" shape="957.220632,971.092631 958.980903,955.594979 974.574709,957.358010 972.807048,972.855420 957.220632,971.092631"/>
    <poly id="1011540035" type="building" color="255,230,230" fill="1" layer="-1.00" shape="983.431187,974.323779 985.566554,959.962067 1001.157372,962.270271 999.021965,976.631978 983.431187,974.323779"/>
    <poly id="1011540036" type="building" color="255,230,230" fill="1" layer="-1.00" shape="978.110255,945.177984 978.915306,932.375328 992.060966,933.202266 991.256246,945.993806 978.110255,945.177984"/>
    <poly id="1011540037" type="building" color="255,230,230" fill="1" layer="-1.00" shape="958.831320,941.837870 960.030431,930.716957 973.017755,932.117289 971.818979,943.227085 958.831320,941.837870"/>
    <poly id="1011540169" type="building" color="255,230,230" fill="1" layer="-1.00" shape="946.690426,915.697606 957.250027,915.984415 957.740613,897.908764 947.180977,897.621955 946.690426,915.697606"/>
    <poly id="1034173875" type="building" color="255,230,230" fill="1" layer="-1.00" shape="1676.637818,2387.855480 1673.257540,2378.310071 1666.496025,2380.693439 1669.883658,2390.239083 1676.637818,2387.855480"/>
    <poly id="1034179915" type="building" color="255,230,230" fill="1" layer="-1.00" shape="1311.366135,2274.473205 1317.028321,2272.654504 1315.390946,2267.605481 1309.728394,2269.435299 1311.366135,2274.473205"/>
    <poly id="1034179919" type="building" color="255,230,230" fill="1" layer="-1.00" shape="1376.293932,2345.702037 1379.329559,2346.190183 1379.944586,2342.427174 1376.909318,2341.927913 1376.293932,2345.702037"/>
    <poly id="1034179922" type="building" color="255,230,230" fill="1" layer="-1.00" shape="1408.530430,2311.312546 1424.698421,2305.930265 1404.003633,2244.083638 1387.835492,2249.465982 1408.530430,2311.312546"/>
    <poly id="1034179923" type="parking" color="184,184,179" fill="1" layer="-1.00" shape="1372.829574,2314.757849 1388.798831,2309.380131 1369.248039,2251.687661 1353.271299,2257.065200 1372.829574,2314.757849"/>
    <poly id="1034179923#1" type="building" color="255,230,230" fill="1" layer="-1.00" shape="1372.829574,2314.757849 1388.798831,2309.380131 1369.248039,2251.687661 1353.271299,2257.065200 1372.829574,2314.757849"/>
    <poly id="1034179924" type="building" color="255,230,230" fill="1" layer="-1.00" shape="1380.857310,2336.971492 1394.166414,2332.898096 1390.780837,2321.917397 1377.471349,2326.001917 1380.857310,2336.971492"/>
    <poly id="1078660666" type="building" color="255,230,230" fill="1" layer="-1.00" shape="1570.309285,2758.144087 1575.468791,2761.816934 1591.917705,2756.355330 1590.072567,2751.377321 1570.309285,2758.144087"/>
    <poly id="1148970169" type="building" color="255,230,230" fill="1" layer="-1.00" shape="1328.044257,2544.921917 1354.108766,2536.133871 1347.550244,2516.682888 1321.485659,2525.470965 1328.044257,2544.921917"/>
    <poly id="1148970170" type="building" color="255,230,230" fill="1" layer="-1.00" shape="1922.927386,2921.357991 1938.248990,2969.601995 1949.489155,2966.041054 1952.742857,2976.283532 1919.823998,2986.736637 1901.256189,2928.239363 1922.927386,2921.357991"/>
    <poly id="1148970170#1" type="shop" color="237,199,255" fill="1" layer="-1.00" shape="1922.927386,2921.357991 1938.248990,2969.601995 1949.489155,2966.041054 1952.742857,2976.283532 1919.823998,2986.736637 1901.256189,2928.239363 1922.927386,2921.357991"/>
    <poly id="118607496" type="building" color="255,230,230" fill="1" layer="-1.00" shape="1886.772774,248.996444 1896.914968,240.014090 1890.442855,232.760077 1880.308008,241.742682 1886.772774,248.996444"/>
    <poly id="1204555439" type="building" color="255,230,230" fill="1" layer="-1.00" shape="534.211821,2128.709339 538.119302,2129.981834 540.557369,2122.583809 536.439023,2121.237729 534.211821,2128.709339"/>
    <poly id="1204555440" type="building" color="255,230,230" fill="1" layer="-1.00" shape="468.928142,2119.453529 472.091794,2120.535014 472.912090,2118.136002 478.708205,2120.126020 477.726970,2122.953753 482.672285,2124.649213 480.788663,2130.140334 475.232444,2128.235960 473.584867,2133.022631 465.250718,2130.160525 466.329801,2127.035543 468.928142,2119.453529"/>
    <poly id="1204555441" type="building" color="255,230,230" fill="1" layer="-1.00" shape="482.672285,2124.649213 487.712010,2126.381112 484.272747,2136.316956 479.240017,2134.596413 480.788663,2130.140334 482.672285,2124.649213"/>
    <poly id="1249274650" type="building" color="255,230,230" fill="1" layer="-1.00" shape="2125.762085,1533.295143 2129.412867,1545.364260 2138.570310,1542.614544 2136.021107,1534.197518 2138.516692,1533.444500 2136.027432,1525.218584 2128.719159,1527.416712 2130.099518,1531.990289 2125.762085,1533.295143"/>
    <poly id="1249274651" type="building" color="255,230,230" fill="1" layer="-1.00" shape="2176.861190,1596.282081 2173.324845,1589.045594 2168.018987,1591.631727 2171.555337,1598.868210 2176.861190,1596.282081"/>
    <poly id="1249274652" type="building" color="255,230,230" fill="1" layer="-1.00" shape="2170.287295,1589.280203 2162.202608,1573.817313 2150.801465,1579.742689 2151.943561,1581.927407 2149.100807,1583.403437 2156.043424,1596.681588 2170.287295,1589.280203"/>
    <poly id="1249274653" type="building" color="255,230,230" fill="1" layer="-1.00" shape="2420.814695,1640.493117 2423.785952,1635.538797 2426.808407,1637.340002 2425.128581,1640.133482 2425.987152,1640.640002 2424.681025,1642.800359 2420.814695,1640.493117"/>
    <poly id="1249274654" type="building" color="255,230,230" fill="1" layer="-1.00" shape="2660.634543,1586.932332 2673.590224,1589.025531 2674.382866,1584.133514 2661.434520,1582.040554 2660.634543,1586.932332"/>
    <poly id="1249279047" type="building" color="255,230,230" fill="1" layer="-1.00" shape="1747.854063,1480.036463 1747.418123,1476.261496 1755.383273,1475.341573 1756.163672,1482.087418 1746.522572,1483.208652 1746.178465,1480.226660 1747.854063,1480.036463"/>
    <poly id="1249279048" type="building" color="255,230,230" fill="1" layer="-1.00" shape="1760.097057,1486.410265 1766.276765,1485.665846 1765.110480,1476.092416 1758.930762,1476.836836 1760.097057,1486.410265"/>
    <poly id="1249279049" type="building" color="255,230,230" fill="1" layer="-1.00" shape="1666.733478,1500.481872 1672.906462,1498.813632 1670.390676,1489.574587 1665.716129,1490.846562 1666.267354,1492.889537 1664.776255,1493.286043 1666.733478,1500.481872"/>
    <poly id="1249279050" type="building" color="255,230,230" fill="1" layer="-1.00" shape="1681.686601,1510.804653 1695.581046,1508.019338 1693.840249,1499.372972 1689.731884,1500.196053 1689.269804,1497.900068 1683.451397,1499.068017 1683.920826,1501.364241 1679.938076,1502.169167 1681.686601,1510.804653"/>
    <poly id="1249279051" type="building" color="255,230,230" fill="1" layer="-1.00" shape="1733.989455,1546.243803 1732.474472,1540.375280 1721.928809,1543.080430 1723.443803,1548.948949 1733.989455,1546.243803"/>
    <poly id="1249279052" type="building" color="255,230,230" fill="1" layer="-1.00" shape="1711.705580,1561.851670 1710.948110,1559.368037 1710.227918,1559.578236 1709.218078,1556.263020 1715.546269,1554.343975 1717.320920,1560.143065 1711.705580,1561.851670"/>
    <poly id="1249279053" type="building" color="255,230,230" fill="1" layer="-1.00" shape="1703.654327,1572.193006 1713.911399,1569.088997 1711.705580,1561.851670 1710.948110,1559.368037 1710.227918,1559.578236 1700.691023,1562.472051 1703.654327,1572.193006"/>
    <poly id="1303937118" type="building" color="255,230,230" fill="1" layer="-1.00" shape="2336.819311,1660.211752 2339.680913,1675.259426 2349.448688,1673.409010 2346.586748,1658.372445 2336.819311,1660.211752"/>
    <poly id="1303937119" type="building" color="255,230,230" fill="1" layer="-1.00" shape="2412.757419,1505.008071 2410.412635,1511.718631 2413.713729,1512.872465 2416.058517,1506.161906 2412.757419,1505.008071"/>
    <poly id="1303937120" type="building" color="255,230,230" fill="1" layer="-1.00" shape="2506.181645,1306.616248 2513.498405,1307.545442 2514.416523,1300.387687 2507.092407,1299.458253 2506.181645,1306.616248"/>
    <poly id="1303937121" type="building" color="255,230,230" fill="1" layer="-1.00" shape="2532.081011,1362.239805 2540.521280,1361.870602 2540.191817,1354.182461 2531.744190,1354.551424 2532.081011,1362.239805"/>
    <poly id="1303937122" type="building" color="255,230,230" fill="1" layer="-1.00" shape="2512.273747,1367.689201 2511.602286,1374.276441 2514.526655,1374.583511 2517.407308,1374.878027 2518.086487,1368.279913 2512.273747,1367.689201"/>
    <poly id="1303937123" type="building" color="255,230,230" fill="1" layer="-1.00" shape="2522.574997,1375.403136 2517.407308,1374.878027 2514.526655,1374.583511 2513.519096,1384.475486 2521.559714,1385.305983 2522.574997,1375.403136"/>
    <poly id="1303937124" type="building" color="255,230,230" fill="1" layer="-1.00" shape="2543.500907,1430.619289 2553.466817,1428.797936 2552.267588,1422.294134 2543.330104,1423.926606 2542.309015,1424.115729 2543.500907,1430.619289"/>
    <poly id="1303937125" type="building" color="255,230,230" fill="1" layer="-1.00" shape="2540.813126,1410.269786 2543.330104,1423.926606 2552.267588,1422.294134 2554.820315,1421.821330 2552.310709,1408.164745 2540.813126,1410.269786"/>
    <poly id="1334164159" type="building" color="255,230,230" fill="1" layer="-1.00" shape="1698.501438,1543.897335 1691.738617,1545.613094 1695.066281,1556.792356 1701.614962,1555.103008 1698.501438,1543.897335"/>
    <poly id="1334164160" type="building" color="255,230,230" fill="1" layer="-1.00" shape="1705.271248,1542.192939 1698.501438,1543.897335 1701.614962,1555.103008 1708.156300,1553.413427 1705.271248,1542.192939"/>
    <poly id="1334164161" type="building" color="255,230,230" fill="1" layer="-1.00" shape="1712.034078,1540.477197 1705.271248,1542.192939 1708.156300,1553.413427 1714.705351,1551.712979 1712.034078,1540.477197"/>
    <poly id="1373611210" type="building" color="255,230,230" fill="1" layer="-1.00" shape="366.512256,908.473737 376.374508,909.627017 374.850626,922.640097 364.981050,921.486582 366.512256,908.473737"/>
    <poly id="1373611211" type="building" color="255,230,230" fill="1" layer="-1.00" shape="407.880541,893.533245 416.672691,894.117931 417.108732,887.456214 408.316572,886.871528 407.880541,893.533245"/>
    <poly id="1373611212" type="building" color="255,230,230" fill="1" layer="-1.00" shape="405.480830,947.963692 413.992428,948.806340 415.095299,937.671134 406.591031,936.828722 405.480830,947.963692"/>
    <poly id="1373611213" type="building" color="255,230,230" fill="1" layer="-1.00" shape="444.589410,920.110596 456.247716,921.444491 456.994338,914.959714 445.328672,913.625581 444.589410,920.110596"/>
    <poly id="1373611775" type="building" color="255,230,230" fill="1" layer="-1.00" shape="829.913643,804.163823 841.395939,809.120014 848.056526,793.781161 836.574203,788.824957 829.913643,804.163823"/>
    <poly id="1373611776" type="building" color="255,230,230" fill="1" layer="-1.00" shape="1120.416953,726.788218 1134.868460,724.108515 1133.269796,715.578277 1118.818269,718.257984 1120.416953,726.788218"/>
    <poly id="1373612212" type="building" color="255,230,230" fill="1" layer="-1.00" shape="1239.049533,981.252209 1247.717124,972.988633 1239.671160,964.604971 1226.882360,976.795861 1232.331494,982.480442 1236.453065,978.542030 1239.049533,981.252209"/>
    <poly id="1373612213" type="building" color="255,230,230" fill="1" layer="-1.00" shape="1300.107538,896.638544 1300.407279,887.413321 1315.551334,887.404701 1315.549623,893.568706 1300.107538,896.638544"/>
    <poly id="1373613424" type="building" color="255,230,230" fill="1" layer="-1.00" shape="1815.689250,1225.246215 1822.642206,1226.285031 1827.164002,1195.856694 1820.217994,1194.829228 1815.689250,1225.246215"/>
    <poly id="1391211465" type="building" color="255,230,230" fill="1" layer="-1.00" shape="1861.828426,3084.383199 1873.175486,3093.765810 1879.771269,3085.847420 1868.417221,3076.453442 1861.828426,3084.383199"/>
    <poly id="1391211466" type="building" color="255,230,230" fill="1" layer="-1.00" shape="1869.969996,2814.006087 1873.516652,2824.291437 1897.422221,2816.091996 1893.875602,2805.806631 1869.969996,2814.006087"/>
    <poly id="1391211468" type="building" color="255,230,230" fill="1" layer="-1.00" shape="1629.545385,2737.241406 1633.390828,2748.526567 1615.287427,2754.668522 1611.434609,2743.383135 1629.545385,2737.241406"/>
    <poly id="1392650881" type="building" color="255,230,230" fill="1" layer="-1.00" shape="1418.708832,1457.929947 1424.492890,1456.460191 1420.159189,1439.562777 1414.374753,1441.043652 1418.708832,1457.929947"/>
    <poly id="1393267302" type="building" color="255,230,230" fill="1" layer="-1.00" shape="935.925530,1278.036536 940.109113,1279.429498 943.186410,1270.260985 939.002820,1268.868020 935.925530,1278.036536"/>
    <poly id="1393267303" type="building" color="255,230,230" fill="1" layer="-1.00" shape="920.798874,1285.935320 921.808612,1282.919423 916.868186,1281.279403 915.858451,1284.295301 920.798874,1285.935320"/>
    <poly id="1393267304" type="building" color="255,230,230" fill="1" layer="-1.00" shape="926.702009,1268.546995 928.487179,1263.164063 923.546377,1261.535153 921.761212,1266.918086 926.702009,1268.546995"/>
    <poly id="1393267305" type="building" color="255,230,230" fill="1" layer="-1.00" shape="946.318099,1249.211212 943.431388,1248.194098 941.553217,1253.496125 944.439925,1254.513238 946.318099,1249.211212"/>
    <poly id="1393267306" type="building" color="255,230,230" fill="1" layer="-1.00" shape="936.830895,1258.283110 939.481386,1250.936614 928.591190,1247.256648 925.940352,1254.614264 936.830895,1258.283110"/>
    <poly id="1393267307" type="building" color="255,230,230" fill="1" layer="-1.00" shape="934.489055,1265.183434 936.830895,1258.283110 925.940352,1254.614264 923.598524,1261.514592 928.487179,1263.164063 934.489055,1265.183434"/>
    <poly id="1393267308" type="building" color="255,230,230" fill="1" layer="-1.00" shape="930.101588,1278.014563 932.622346,1270.585972 926.702009,1268.546995 921.731825,1266.917133 919.211441,1274.334614 930.101588,1278.014563"/>
    <poly id="1393267309" type="building" color="255,230,230" fill="1" layer="-1.00" shape="927.759763,1284.914889 930.101588,1278.014563 919.211441,1274.334614 916.869268,1281.246059 927.759763,1284.914889"/>
    <poly id="1393267310" type="building" color="255,230,230" fill="1" layer="-1.00" shape="900.709529,1275.870953 893.898607,1272.946399 896.323843,1267.328304 897.524362,1264.552244 904.473078,1267.536901 900.709529,1275.870953"/>
    <poly id="1393267311" type="building" color="255,230,230" fill="1" layer="-1.00" shape="900.709529,1275.870953 904.473078,1267.536901 911.175244,1270.413435 907.549470,1278.807582 900.709529,1275.870953"/>
    <poly id="1393267312" type="building" color="255,230,230" fill="1" layer="-1.00" shape="911.622555,1277.938276 913.957126,1272.395132 911.192654,1271.237355 908.858086,1276.780499 911.622555,1277.938276"/>
    <poly id="1393267313" type="building" color="255,230,230" fill="1" layer="-1.00" shape="896.323843,1267.328304 893.577302,1266.070980 891.198810,1271.835235 893.898607,1272.946399 896.323843,1267.328304"/>
    <poly id="1393637614" type="building" color="255,230,230" fill="1" layer="-1.00" shape="980.885181,1163.012166 980.408841,1159.558648 971.130438,1160.826519 971.606423,1164.291151 980.885181,1163.012166"/>
    <poly id="1393637615" type="building" color="255,230,230" fill="1" layer="-1.00" shape="860.477262,1217.232180 853.285488,1216.298091 852.365758,1223.344679 859.557523,1224.278767 860.477262,1217.232180"/>
    <poly id="1393637616" type="building" color="255,230,230" fill="1" layer="-1.00" shape="861.878975,1207.341728 851.440276,1202.207869 847.851307,1209.468349 858.289995,1214.602202 861.878975,1207.341728"/>
    <poly id="1393637617" type="building" color="255,230,230" fill="1" layer="-1.00" shape="874.800687,1213.468469 868.307684,1209.808789 863.369327,1218.538710 869.862322,1222.198384 874.800687,1213.468469"/>
    <poly id="1393637618" type="building" color="255,230,230" fill="1" layer="-1.00" shape="898.457192,1169.774254 899.562384,1166.082737 888.395620,1162.761065 887.290436,1166.452585 898.457192,1169.774254"/>
    <poly id="1393637619" type="building" color="255,230,230" fill="1" layer="-1.00" shape="903.723928,1155.002234 902.496283,1152.036182 904.151057,1151.355491 901.068868,1143.889867 899.406745,1144.570321 898.322567,1141.942713 882.691813,1148.367711 883.837434,1151.141951 882.182662,1151.822647 885.264871,1159.288260 886.926988,1158.607803 888.085856,1161.426978 903.723928,1155.002234"/>
    <poly id="1393637620" type="building" color="255,230,230" fill="1" layer="-1.00" shape="978.824834,1144.453210 974.594711,1132.021298 960.926858,1136.651639 965.157007,1149.083541 978.824834,1144.453210"/>
    <poly id="1393637621" type="building" color="255,230,230" fill="1" layer="-1.00" shape="965.007604,1162.986729 963.149267,1150.442604 949.914362,1152.383290 951.772367,1164.938525 965.007604,1162.986729"/>
    <poly id="1393637622" type="building" color="255,230,230" fill="1" layer="-1.00" shape="986.927427,1242.461730 987.335632,1237.812997 971.327010,1236.392475 970.945049,1240.686014 969.646849,1240.577147 969.321811,1244.249453 970.620010,1244.358320 970.238049,1248.651859 986.246635,1250.072378 986.602378,1246.134035 987.878537,1246.242191 988.196240,1242.569648 986.927427,1242.461730"/>
    <poly id="1393637623" type="building" color="255,230,230" fill="1" layer="-1.00" shape="783.230540,1266.355210 785.573830,1267.120977 787.377157,1261.627333 785.033865,1260.861565 783.230540,1266.355210"/>
    <poly id="1393637624" type="building" color="255,230,230" fill="1" layer="-1.00" shape="779.599330,1284.228953 790.627535,1287.735078 794.670603,1275.081847 783.635028,1271.575476 779.599330,1284.228953"/>
    <poly id="1409402048" type="building" color="255,230,230" fill="1" layer="-1.00" shape="2482.523851,1250.799121 2491.157448,1253.518227 2495.758111,1239.003843 2487.117146,1236.284490 2482.523851,1250.799121"/>
    <poly id="1409402049" type="building" color="255,230,230" fill="1" layer="-1.00" shape="2499.170641,1256.317193 2507.804223,1259.036325 2512.404927,1244.521953 2503.763977,1241.802574 2499.170641,1256.317193"/>
    <poly id="1409402050" type="building" color="255,230,230" fill="1" layer="-1.00" shape="2514.677709,1261.152690 2523.311277,1263.871846 2527.912019,1249.357486 2519.271083,1246.638083 2514.677709,1261.152690"/>
    <poly id="1423814268" type="building" color="255,230,230" fill="1" layer="-1.00" shape="2378.952129,1097.938039 2390.639175,1102.203236 2394.240351,1092.384910 2382.553285,1088.119706 2378.952129,1097.938039"/>
    <poly id="1425232293" type="building" color="255,230,230" fill="1" layer="-1.00" shape="2858.752200,1052.077778 2865.508364,1045.211520 2860.170462,1039.996217 2853.414299,1046.862481 2858.752200,1052.077778"/>
    <poly id="171006991" type="building" color="255,230,230" fill="1" layer="-1.00" shape="1645.882198,1133.028710 1647.430275,1119.137599 1660.723476,1120.616276 1659.197769,1134.496987 1645.882198,1133.028710"/>
    <poly id="171006992" type="building" color="255,230,230" fill="1" layer="-1.00" shape="1656.293269,801.931415 1656.486574,793.960008 1651.959555,793.846017 1651.766256,801.817423 1656.293269,801.931415"/>
    <poly id="171006995" type="building" color="255,230,230" fill="1" layer="-1.00" shape="699.714085,695.658394 694.546481,691.930614 686.593128,702.910732 691.768434,706.627627 699.714085,695.658394"/>
    <poly id="171006997" type="building" color="255,230,230" fill="1" layer="-1.00" shape="631.728491,665.741482 640.834190,655.288154 636.670232,651.681933 627.564895,662.124153 631.728491,665.741482"/>
    <poly id="171007001" type="building" color="255,230,230" fill="1" layer="-1.00" shape="681.719541,831.162562 681.907434,826.495563 668.693384,825.956441 668.497795,830.634317 681.719541,831.162562"/>
    <poly id="171007002" type="building" color="255,230,230" fill="1" layer="-1.00" shape="644.184748,751.272646 647.364487,744.610743 657.352004,749.173232 654.579537,756.204360 644.184748,751.272646"/>
    <poly id="171007023" type="building" color="255,230,230" fill="1" layer="-1.00" shape="1055.337653,977.758089 1055.624910,969.812009 1039.486700,969.188235 1039.257520,977.158451 1055.337653,977.758089"/>
    <poly id="178402479" type="building" color="255,230,230" fill="1" layer="-1.00" shape="1730.747644,1212.954581 1731.800897,1207.036201 1734.937811,1207.594564 1733.884555,1213.512943 1730.747644,1212.954581"/>
    <poly id="178402480" type="building" color="255,230,230" fill="1" layer="-1.00" shape="1856.728869,1227.462715 1860.293483,1227.534396 1860.402969,1221.919066 1856.837989,1221.858500 1856.728869,1227.462715"/>
    <poly id="178402481" type="building" color="255,230,230" fill="1" layer="-1.00" shape="1819.632436,1264.028266 1823.249381,1264.524438 1823.462805,1262.940299 1819.846220,1262.433012 1819.632436,1264.028266"/>
    <poly id="178402485" type="building" color="255,230,230" fill="1" layer="-1.00" shape="1735.579099,1234.419230 1727.406120,1233.129381 1724.808533,1232.722106 1723.013293,1244.034933 1733.783837,1245.732054 1735.579099,1234.419230"/>
    <poly id="178848990" type="building" color="255,230,230" fill="1" layer="-1.00" shape="1379.644415,2615.728821 1392.110195,2604.785226 1386.990814,2598.966454 1374.382835,2609.760791 1379.644415,2615.728821"/>
    <poly id="178848990#1" type="shop" color="237,199,255" fill="1" layer="-1.00" shape="1379.644415,2615.728821 1392.110195,2604.785226 1386.990814,2598.966454 1374.382835,2609.760791 1379.644415,2615.728821"/>
    <poly id="178848991" type="building" color="255,230,230" fill="1" layer="-1.00" shape="1416.381107,2590.553913 1419.779752,2590.953759 1432.074229,2586.636074 1428.495402,2576.405650 1427.716292,2574.588936 1412.609974,2579.905563 1414.495904,2585.218623 1416.381107,2590.553913"/>
    <poly id="178848991#1" type="shop" color="237,199,255" fill="1" layer="-1.00" shape="1416.381107,2590.553913 1419.779752,2590.953759 1432.074229,2586.636074 1428.495402,2576.405650 1427.716292,2574.588936 1412.609974,2579.905563 1414.495904,2585.218623 1416.381107,2590.553913"/>
    <poly id="178848992" type="building" color="255,230,230" fill="1" layer="-1.00" shape="1425.270057,2624.244858 1413.365147,2641.904784 1433.412446,2655.341313 1445.317398,2637.681428 1425.270057,2624.244858"/>
    <poly id="178848992#1" type="shop" color="237,199,255" fill="1" layer="-1.00" shape="1425.270057,2624.244858 1413.365147,2641.904784 1433.412446,2655.341313 1445.317398,2637.681428 1425.270057,2624.244858"/>
    <poly id="178848993" type="building" color="255,230,230" fill="1" layer="-1.00" shape="1358.981451,2601.771788 1376.518560,2586.820638 1386.990814,2598.966454 1374.382835,2609.760791 1371.228921,2612.462099 1366.155766,2606.578090 1364.431247,2608.057465 1358.981451,2601.771788"/>
    <poly id="178848993#1" type="shop" color="237,199,255" fill="1" layer="-1.00" shape="1358.981451,2601.771788 1376.518560,2586.820638 1386.990814,2598.966454 1374.382835,2609.760791 1371.228921,2612.462099 1366.155766,2606.578090 1364.431247,2608.057465 1358.981451,2601.771788"/>
    <poly id="178848994" type="building" color="255,230,230" fill="1" layer="-1.00" shape="1435.953977,2606.600863 1430.671254,2615.296830 1438.087040,2619.910808 1443.570840,2611.588563 1435.953977,2606.600863"/>
    <poly id="178848994#1" type="shop" color="237,199,255" fill="1" layer="-1.00" shape="1435.953977,2606.600863 1430.671254,2615.296830 1438.087040,2619.910808 1443.570840,2611.588563 1435.953977,2606.600863"/>
    <poly id="178848995" type="building" color="255,230,230" fill="1" layer="-1.00" shape="1415.760001,2567.379444 1411.115464,2550.126920 1395.992638,2554.141256 1397.047202,2558.114340 1400.408818,2570.729874 1400.585802,2571.392094 1415.760001,2567.379444"/>
    <poly id="178848995#1" type="shop" color="237,199,255" fill="1" layer="-1.00" shape="1415.760001,2567.379444 1411.115464,2550.126920 1395.992638,2554.141256 1397.047202,2558.114340 1400.408818,2570.729874 1400.585802,2571.392094 1415.760001,2567.379444"/>
    <poly id="178848996" type="building" color="255,230,230" fill="1" layer="-1.00" shape="1442.501497,2590.669309 1436.601916,2573.576203 1443.680733,2571.147267 1450.746571,2591.716419 1443.690172,2594.134948 1442.501497,2590.669309"/>
    <poly id="178848996#1" type="shop" color="237,199,255" fill="1" layer="-1.00" shape="1442.501497,2590.669309 1436.601916,2573.576203 1443.680733,2571.147267 1450.746571,2591.716419 1443.690172,2594.134948 1442.501497,2590.669309"/>
    <poly id="178848997" type="building" color="255,230,230" fill="1" layer="-1.00" shape="1409.869317,2589.340705 1414.495904,2585.218623 1412.609974,2579.905563 1403.976208,2582.895917 1409.869317,2589.340705"/>
    <poly id="178848997#1" type="shop" color="237,199,255" fill="1" layer="-1.00" shape="1409.869317,2589.340705 1414.495904,2585.218623 1412.609974,2579.905563 1403.976208,2582.895917 1409.869317,2589.340705"/>
    <poly id="178848998" type="building" color="255,230,230" fill="1" layer="-1.00" shape="1423.169282,2609.489523 1430.491597,2597.088014 1438.750740,2601.996463 1435.953977,2606.600863 1430.671254,2615.296830 1422.508333,2610.369269 1423.169282,2609.489523"/>
    <poly id="178848998#1" type="shop" color="237,199,255" fill="1" layer="-1.00" shape="1423.169282,2609.489523 1430.491597,2597.088014 1438.750740,2601.996463 1435.953977,2606.600863 1430.671254,2615.296830 1422.508333,2610.369269 1423.169282,2609.489523"/>
    <poly id="178848999" type="building" color="255,230,230" fill="1" layer="-1.00" shape="1404.851053,2631.725238 1411.881306,2635.759189 1419.680778,2622.249412 1406.267309,2614.180296 1397.231945,2629.519144 1404.001654,2633.199688 1404.851053,2631.725238"/>
    <poly id="178848999#1" type="shop" color="237,199,255" fill="1" layer="-1.00" shape="1404.851053,2631.725238 1411.881306,2635.759189 1419.680778,2622.249412 1406.267309,2614.180296 1397.231945,2629.519144 1404.001654,2633.199688 1404.851053,2631.725238"/>
    <poly id="178849000" type="building" color="255,230,230" fill="1" layer="-1.00" shape="1381.570291,2582.512080 1392.635506,2573.036137 1383.275882,2562.172668 1379.577367,2557.879942 1368.519493,2567.356150 1376.483149,2576.605356 1381.570291,2582.512080"/>
    <poly id="178849000#1" type="shop" color="237,199,255" fill="1" layer="-1.00" shape="1381.570291,2582.512080 1392.635506,2573.036137 1383.275882,2562.172668 1379.577367,2557.879942 1368.519493,2567.356150 1376.483149,2576.605356 1381.570291,2582.512080"/>
    <poly id="203855904" type="building" color="255,230,230" fill="1" layer="-1.00" shape="1617.390987,1146.565686 1621.388608,1147.118620 1622.248452,1141.038159 1618.243841,1140.473871 1617.390987,1146.565686"/>
    <poly id="203855905" type="building" color="255,230,230" fill="1" layer="-1.00" shape="1598.788888,1075.229055 1605.444089,1076.157759 1606.324762,1069.888825 1599.676901,1068.960359 1598.788888,1075.229055"/>
    <poly id="203855906" type="building" color="255,230,230" fill="1" layer="-1.00" shape="1620.616852,1135.355039 1627.524082,1135.769032 1627.744526,1132.160094 1620.837292,1131.746101 1620.616852,1135.355039"/>
    <poly id="203912026" type="building" color="255,230,230" fill="1" layer="-1.00" shape="1690.620971,898.336402 1682.078506,898.214027 1682.023397,901.939611 1690.565856,902.061986 1690.620971,898.336402"/>
    <poly id="203912027" type="building" color="255,230,230" fill="1" layer="-1.00" shape="1581.336248,1024.602957 1581.040126,1030.312338 1587.501491,1030.645005 1587.797620,1024.935624 1581.336248,1024.602957"/>
    <poly id="203912028" type="building" color="255,230,230" fill="1" layer="-1.00" shape="1272.787662,1065.640848 1274.317682,1068.349780 1279.246929,1065.583667 1277.716910,1062.874734 1272.787662,1065.640848"/>
    <poly id="203912029" type="building" color="255,230,230" fill="1" layer="-1.00" shape="1390.318452,1082.745463 1391.129030,1073.648106 1386.318484,1073.213558 1385.500568,1082.310677 1390.318452,1082.745463"/>
    <poly id="203912030" type="building" color="255,230,230" fill="1" layer="-1.00" shape="1531.354507,1010.548339 1531.105956,1013.666796 1535.566424,1014.012191 1535.807269,1010.904610 1531.354507,1010.548339"/>
    <poly id="203912031" type="building" color="255,230,230" fill="1" layer="-1.00" shape="1365.920037,1142.569358 1366.008097,1150.494269 1373.181360,1150.415905 1373.093310,1142.490994 1365.920037,1142.569358"/>
    <poly id="203912032" type="building" color="255,230,230" fill="1" layer="-1.00" shape="1309.093989,1007.360671 1315.058558,1008.044052 1315.715855,1002.301903 1309.751281,1001.618521 1309.093989,1007.360671"/>