<?xml version="1.0" encoding="UTF-8"?>
<!-- generated on 2025-12-14 15:45:03.723024 by randomTrips.py v1_5_0+0000-3a3be608d2
  options: -n mailing.net.xml -o mailing.trips.xml <doubleminus>begin 0 <doubleminus>end 3600 <doubleminus>period 3.0 <doubleminus>fringe-factor 5
-->
<routes xmlns:xsi="http://www.w3.org/2001/XMLSchema-instance" xsi:noNamespaceSchemaLocation="http://sumo.dlr.de/xsd/routes_file.xsd">
    <trip id="0" depart="0.00" from="1190319186#2" to="-273123309#0"/>
    <trip id="1" depart="3.00" from="138300618" to="25640375#2"/>
    <trip id="2" depart="6.00" from="77670297" to="25901706"/>
    <trip id="3" depart="9.00" from="-37192508#2" to="144654970#1"/>
    <trip id="4" depart="12.00" from="-29205272#9" to="-26135510#1"/>
    <trip id="5" depart="15.00" from="-817127206" to="25344542#2"/>
    <trip id="6" depart="18.00" from="51856495#2" to="131700651#2"/>
    <trip id="7" depart="21.00" from="-24537982#3" to="266507533"/>
    <trip id="8" depart="24.00" from="4942408#2" to="193384412#1"/>
    <trip id="9" depart="27.00" from="-1207821130" to="718828183#4"/>
    <trip id="10" depart="30.00" from="25380714#1" to="128070666#2"/>
    <trip id="11" depart="33.00" from="124194339#0" to="-988099049#0"/>
    <trip id="12" depart="36.00" from="-413332605#2" to="-1285649385#0"/>
    <trip id="13" depart="39.00" from="149045269#1" to="-25596851#6"/>
    <trip id="14" depart="42.00" from="25901651#3" to="51743953#2"/>
    <trip id="15" depart="45.00" from="-1176872561" to="27761238#3"/>
    <trip id="16" depart="48.00" from="1081560145" to="-726514453#3"/>
    <trip id="17" depart="51.00" from="41522167#4" to="25616922#0"/>
    <trip id="18" depart="54.00" from="-25640149#0" to="950185007#2"/>
    <trip id="19" depart="57.00" from="-137463474#0" to="-32202764"/>
    <trip id="20" depart="60.00" from="-171007013#4" to="-24608843#3"/>
    <trip id="21" depart="63.00" from="-274823622#2" to="32883444#1"/>
    <trip id="22" depart="66.00" from="201414945#5" to="110435734#1"/>
    <trip id="23" depart="69.00" from="51856492#2" to="64464405"/>
    <trip id="24" depart="72.00" from="-144659492#8" to="1288037233#0"/>
    <trip id="25" depart="75.00" from="-1377264643" to="145069351"/>
    <trip id="26" depart="78.00" from="32509968#4" to="-1311418311#4"/>
    <trip id="27" depart="81.00" from="891288448" to="914485585#4"/>
    <trip id="28" depart="84.00" from="-148050453#0" to="-144657087#1"/>
    <trip id="29" depart="87.00" from="108310252#0" to="165520703#5"/>
    <trip id="30" depart="90.00" from="-28132749#2" to="-1188114154#0"/>
    <trip id="31" depart="93.00" from="-817127205" to="888058431"/>
    <trip id="32" depart="96.00" from="25596851#0" to="-118607487#6"/>
    <trip id="33" depart="99.00" from="1081560145" to="1377416012#1"/>
    <trip id="34" depart="102.00" from="-42277295#1" to="25363744"/>
    <trip id="35" depart="105.00" from="27825654#1" to="-201926266"/>
    <trip id="36" depart="108.00" from="-37192508#2" to="-816133986#1"/>
    <trip id="37" depart="111.00" from="-25640093#1" to="24971737#2"/>
    <trip id="38" depart="114.00" from="4942376" to="-25573254#2"/>
    <trip id="39" depart="117.00" from="-10425611#1" to="887476709"/>
    <trip id="40" depart="120.00" from="-25955084#1" to="-202070435"/>
    <trip id="41" depart="123.00" from="-25616922#0" to="128070666#2"/>
    <trip id="42" depart="126.00" from="25596993#6" to="-1311417978"/>
    <trip id="43" depart="129.00" from="37192505#1" to="413332605#2"/>
    <trip id="44" depart="132.00" from="1199679352#0" to="127076902#1"/>
    <trip id="45" depart="135.00" from="24989986" to="979851462#0"/>
    <trip id="46" depart="138.00" from="-817127206" to="32230724#1"/>
    <trip id="47" depart="141.00" from="60995199#0" to="-24943168#1"/>
    <trip id="48" depart="144.00" from="-25640098" to="-25665421#2"/>
    <trip id="49" depart="147.00" from="-29027727#1" to="1377264646"/>
    <trip id="50" depart="150.00" from="-27914965#5" to="323248155#0"/>
    <trip id="51" depart="153.00" from="-25377287#4" to="-1084717760#0"/>
    <trip id="52" depart="156.00" from="4058127" to="1288620304"/>
    <trip id="53" depart="159.00" from="391029007#1" to="1105895057#2"/>
    <trip id="54" depart="162.00" from="4942659" to="-25623126#1"/>
    <trip id="55" depart="165.00" from="-891288454#1" to="26134468#1"/>
    <trip id="56" depart="168.00" from="37193859#14" to="-27872583#2"/>
    <trip id="57" depart="171.00" from="-129778904#3" to="32140253#0"/>
    <trip id="58" depart="174.00" from="-39861703" to="171007045#1"/>
    <trip id="59" depart="177.00" from="-25363743#3" to="-153692837#2"/>
    <trip id="60" depart="180.00" from="-32140256#0" to="-25616922#3"/>
    <trip id="61" depart="183.00" from="274823622#3" to="1286393563#1"/>
    <trip id="62" depart="186.00" from="35064464#2" to="193382571"/>
    <trip id="63" depart="189.00" from="-27781908#3" to="-1199679352#0"/>
    <trip id="64" depart="192.00" from="64464377#4" to="54169287#1"/>
    <trip id="65" depart="195.00" from="71900674#4" to="-32140180"/>
    <trip id="66" depart="198.00" from="-39698489" to="25623126#6"/>
    <trip id="67" depart="201.00" from="-26134440#1" to="274823623#1"/>
    <trip id="68" depart="204.00" from="30399662#0" to="-1288037233#3"/>
    <trip id="69" depart="207.00" from="378466167" to="201880159#1"/>
    <trip id="70" depart="210.00" from="118607487#10" to="92026769#6"/>
    <trip id="71" depart="213.00" from="-32203959#1" to="-29205273#9"/>
    <trip id="72" depart="216.00" from="25638617" to="25794504#1"/>
    <trip id="73" depart="219.00" from="195073412" to="266507554#1"/>
    <trip id="74" depart="222.00" from="-32612308" to="24943168#6"/>
    <trip id="75" depart="225.00" from="32234776" to="28091397"/>
    <trip id="76" depart="228.00" from="26973015#1" to="-106083635"/>
    <trip id="77" depart="231.00" from="-27825654#3" to="-25616922#3"/>
    <trip id="78" depart="234.00" from="25616922#1" to="25380714#1"/>
    <trip id="79" depart="237.00" from="41522169#1" to="28132836#6"/>
    <trip id="80" depart="240.00" from="39704919#0" to="25902677#0"/>
    <trip id="81" depart="243.00" from="1054283987#0" to="145069331#2"/>
    <trip id="82" depart="246.00" from="-624350642" to="-77912241#1"/>
    <trip id="83" depart="249.00" from="25573254#1" to="-413332600"/>
    <trip id="84" depart="252.00" from="-25993505#4" to="-45378204#1"/>
    <trip id="85" depart="255.00" from="25596851#3" to="41140024"/>
    <trip id="86" depart="258.00" from="-435296968" to="836209352"/>
    <trip id="87" depart="261.00" from="-25640097#1" to="-25616922#6"/>
    <trip id="88" depart="264.00" from="-25623125#6" to="25993592#0"/>
    <trip id="89" depart="267.00" from="-25708166#1" to="25705905"/>
    <trip id="90" depart="270.00" from="-37192506#1" to="32253940#0"/>
    <trip id="91" depart="273.00" from="146973222" to="-150746347#6"/>
    <trip id="92" depart="276.00" from="-1186977746#1" to="1377264643"/>
    <trip id="93" depart="279.00" from="413332600" to="32140444#3"/>
    <trip id="94" depart="282.00" from="841388878#2" to="-1191630598"/>
    <trip id="95" depart="285.00" from="37193860" to="146973218#2"/>
    <trip id="96" depart="288.00" from="-25596851#2" to="718828185#1"/>
    <trip id="97" depart="291.00" from="118607487#0" to="4324828#1"/>
    <trip id="98" depart="294.00" from="61326427#1" to="28132718#0"/>
    <trip id="99" depart="297.00" from="1268765262#2" to="25535675#1"/>
    <trip id="100" depart="300.00" from="-31361632" to="146973236#15"/>
    <trip id="101" depart="303.00" from="-25955084#1" to="201789797#1"/>
    <trip id="102" depart="306.00" from="-25955083#4" to="77912241#0"/>
    <trip id="103" depart="309.00" from="27914967" to="25797315#1"/>
    <trip id="104" depart="312.00" from="305390325#3" to="1288037234"/>
    <trip id="105" depart="315.00" from="27894322#0" to="32930762"/>
    <trip id="106" depart="318.00" from="-32202510#0" to="1389763707#1"/>
    <trip id="107" depart="321.00" from="-1215634477#1" to="-914485588#1"/>
    <trip id="108" depart="324.00" from="-169739285" to="1373288695#1"/>
    <trip id="109" depart="327.00" from="-24972185#7" to="159743996#1"/>
    <trip id="110" depart="330.00" from="37681592#1" to="-145069287#0"/>
    <trip id="111" depart="333.00" from="726514453#4" to="41139095"/>
    <trip id="112" depart="336.00" from="1083136826" to="-950185007#2"/>
    <trip id="113" depart="339.00" from="841388871#1" to="28781036#1"/>
    <trip id="114" depart="342.00" from="266507544" to="-175761127#2"/>
    <trip id="115" depart="345.00" from="48395120#1" to="-25901651#0"/>
    <trip id="116" depart="348.00" from="-1042557959#0" to="97304242#8"/>
    <trip id="117" depart="351.00" from="166643660#1" to="-157306362#6"/>
    <trip id="118" depart="354.00" from="-25955084#1" to="31021475#0"/>
    <trip id="119" depart="357.00" from="-28133152#2" to="27782265#9"/>
    <trip id="120" depart="360.00" from="-391029014#0" to="26134457#0"/>
    <trip id="121" depart="363.00" from="-24978651#2" to="-26176222#2"/>
    <trip id="122" depart="366.00" from="-25363744" to="978223045"/>
    <trip id="123" depart="369.00" from="841388878#1" to="814691985#3"/>
    <trip id="124" depart="372.00" from="25665446#7" to="-25380714#2"/>
    <trip id="125" depart="375.00" from="-25366167#0" to="-28133181#1"/>
    <trip id="126" depart="378.00" from="413332605#1" to="201789794#2"/>
    <trip id="127" depart="381.00" from="-75123449" to="-26219869#3"/>
    <trip id="128" depart="384.00" from="-37193859#11" to="-1311418311#4"/>
    <trip id="129" depart="387.00" from="157305702#0" to="192768914"/>
    <trip id="130" depart="390.00" from="1311418312" to="23258631#1"/>
    <trip id="131" depart="393.00" from="-42276507" to="-36792021#3"/>
    <trip id="132" depart="396.00" from="-201828014#3" to="-26176223#1"/>
    <trip id="133" depart="399.00" from="1311418619#1" to="-24983010"/>
    <trip id="134" depart="402.00" from="-107671229" to="144659496"/>
    <trip id="135" depart="405.00" from="26134486" to="-25195313#2"/>
    <trip id="136" depart="408.00" from="-726514446#5" to="-888669962#1"/>
    <trip id="137" depart="411.00" from="-293162262" to="-1288037233#7"/>
    <trip id="138" depart="414.00" from="27782265#11" to="891288454#1"/>
    <trip id="139" depart="417.00" from="1285343853#1" to="61318930#4"/>
    <trip id="140" depart="420.00" from="772879617#0" to="32350852#1"/>
    <trip id="141" depart="423.00" from="-914485586#11" to="-27195924#3"/>
    <trip id="142" depart="426.00" from="-24872530#2" to="35073468#3"/>
    <trip id="143" depart="429.00" from="29205272#10" to="257907858#1"/>
    <trip id="144" depart="432.00" from="1066379886#1" to="1176872559"/>
    <trip id="145" depart="435.00" from="25344542#3" to="32351021#1"/>
    <trip id="146" depart="438.00" from="51856495#1" to="26219869#3"/>
    <trip id="147" depart="441.00" from="-28133181#1" to="-26134440#3"/>
    <trip id="148" depart="444.00" from="-144659492#2" to="-169739284"/>
    <trip id="149" depart="447.00" from="61326427#0" to="-108310253"/>
    <trip id="150" depart="450.00" from="33280103#3" to="1023430510#1"/>
    <trip id="151" depart="453.00" from="110435735#0" to="-32350901#2"/>
    <trip id="152" depart="456.00" from="305390325#3" to="-1190319186#2"/>
    <trip id="153" depart="459.00" from="25595895#2" to="-32202763"/>
    <trip id="154" depart="462.00" from="41140024" to="151167748"/>
    <trip id="155" depart="465.00" from="266507556" to="25640093#4"/>
    <trip id="156" depart="468.00" from="25616922#1" to="-31021477#3"/>
    <trip id="157" depart="471.00" from="64464397#1" to="25573246#1"/>
    <trip id="158" depart="474.00" from="-33280103#4" to="24971737#1"/>
    <trip id="159" depart="477.00" from="24972185#0" to="202070444"/>
    <trip id="160" depart="480.00" from="-149045269#0" to="-29027839#1"/>
    <trip id="161" depart="483.00" from="-27781907#1" to="-891288454#0"/>
    <trip id="162" depart="486.00" from="25595895#2" to="32020916#1"/>
    <trip id="163" depart="489.00" from="-718828185#1" to="-53795883#9"/>
    <trip id="164" depart="492.00" from="-153692837#0" to="25640094"/>
    <trip id="165" depart="495.00" from="-914485588#1" to="-201414945#2"/>
    <trip id="166" depart="498.00" from="54154921#1" to="148050453#2"/>
    <trip id="167" depart="501.00" from="201828014#0" to="-718828185#3"/>
    <trip id="168" depart="504.00" from="266507547#1" to="-25377287#6"/>
    <trip id="169" depart="507.00" from="151167753" to="-35743273#0"/>
    <trip id="170" depart="510.00" from="29205273#0" to="-92026769#6"/>
    <trip id="171" depart="513.00" from="391208991" to="32203888#0"/>
    <trip id="172" depart="516.00" from="31342064#0" to="4942659"/>
    <trip id="173" depart="519.00" from="413332600" to="28133087"/>
    <trip id="174" depart="522.00" from="-32141020#3" to="293162564#1"/>
    <trip id="175" depart="525.00" from="27872583#2" to="266567306#1"/>
    <trip id="176" depart="528.00" from="542806889#1" to="-24943168#6"/>
    <trip id="177" depart="531.00" from="914485587#0" to="274823622#7"/>
    <trip id="178" depart="534.00" from="24872530#5" to="1054283987#0"/>
    <trip id="179" depart="537.00" from="172368742" to="914485593#4"/>
    <trip id="180" depart="540.00" from="-772879617#0" to="-266507550#2"/>
    <trip id="181" depart="543.00" from="542650762#1" to="425100450#0"/>
    <trip id="182" depart="546.00" from="-53795883#5" to="39860602"/>
    <trip id="183" depart="549.00" from="1377264644" to="300750369#1"/>
    <trip id="184" depart="552.00" from="1265563392#1" to="914485586#14"/>
    <trip id="185" depart="555.00" from="149044751#2" to="-146973236#4"/>
    <trip id="186" depart="558.00" from="-27781947#0" to="-28161024#0"/>
    <trip id="187" depart="561.00" from="-28133112#0" to="306240161#1"/>
    <trip id="188" depart="564.00" from="-64464377#0" to="157306363"/>
    <trip id="189" depart="567.00" from="-26134440#4" to="-52513195"/>
    <trip id="190" depart="570.00" from="-77912241#1" to="-29205273#8"/>
    <trip id="191" depart="573.00" from="29205272#4" to="32021408"/>
    <trip id="192" depart="576.00" from="26471933#0" to="32350901#2"/>
    <trip id="193" depart="579.00" from="-171006984" to="24971737#2"/>
    <trip id="194" depart="582.00" from="25595931" to="153220338#4"/>
    <trip id="195" depart="585.00" from="-27825202#0" to="26134457#1"/>
    <trip id="196" depart="588.00" from="-149044751#2" to="-718828184#2"/>
    <trip id="197" depart="591.00" from="25573254#2" to="-23258631#18"/>
    <trip id="198" depart="594.00" from="-27781905" to="29027727#0"/>
    <trip id="199" depart="597.00" from="-308849647#1" to="-25027491#0"/>
    <trip id="200" depart="600.00" from="-145069303#1" to="32202510#1"/>
    <trip id="201" depart="603.00" from="-28161026#5" to="23258631#6"/>
    <trip id="202" depart="606.00" from="-26134440#0" to="293162564#3"/>
    <trip id="203" depart="609.00" from="914485588#1" to="-1084717759#1"/>
    <trip id="204" depart="612.00" from="27761238#6" to="204095914#0"/>
    <trip id="205" depart="615.00" from="-26223313" to="25638761#2"/>
    <trip id="206" depart="618.00" from="-24943168#5" to="64464414#1"/>
    <trip id="207" depart="621.00" from="-32202510#0" to="914485586#6"/>
    <trip id="208" depart="624.00" from="-32140256#0" to="-1266860836#2"/>
    <trip id="209" depart="627.00" from="32021365#4" to="-148050457#2"/>
    <trip id="210" depart="630.00" from="164051410#0" to="140684003"/>
    <trip id="211" depart="633.00" from="413332605#1" to="25796964#3"/>
    <trip id="212" depart="636.00" from="-1288037233#11" to="1285343853#1"/>
    <trip id="213" depart="639.00" from="772879617#1" to="-24895312#3"/>
    <trip id="214" depart="642.00" from="64464408" to="-266565295#8"/>
    <trip id="215" depart="645.00" from="24692391#2" to="-25377287#6"/>
    <trip id="216" depart="648.00" from="128070667#1" to="-25363746"/>
    <trip id="217" depart="651.00" from="201789794#2" to="24989879#1"/>
    <trip id="218" depart="654.00" from="54154922#2" to="-138300617#2"/>
    <trip id="219" depart="657.00" from="37193858#0" to="129778904#3"/>
    <trip id="220" depart="660.00" from="-765244914#1" to="1176872561"/>
    <trip id="221" depart="663.00" from="-157306362#4" to="25344437#6"/>
    <trip id="222" depart="666.00" from="-25638761#0" to="-51743953#3"/>
    <trip id="223" depart="669.00" from="30482638#6" to="25188982#0"/>
    <trip id="224" depart="672.00" from="-37193852#3" to="25626559#3"/>
    <trip id="225" depart="675.00" from="-1308822736#0" to="108210906"/>
    <trip id="226" depart="678.00" from="-25377287#8" to="-144655547#8"/>
    <trip id="227" depart="681.00" from="1084717760#0" to="25665446#2"/>
    <trip id="228" depart="684.00" from="-69685049#2" to="118604361"/>
    <trip id="229" depart="687.00" from="836209350#2" to="-25895947#2"/>
    <trip id="230" depart="690.00" from="1084717760#1" to="28161105#1"/>
    <trip id="231" depart="693.00" from="27872583#0" to="146973239"/>
    <trip id="232" depart="696.00" from="-201880159#3" to="-27761238#0"/>
    <trip id="233" depart="699.00" from="274823622#9" to="-1227627543"/>
    <trip id="234" depart="702.00" from="32976752" to="124194339#1"/>
    <trip id="235" depart="705.00" from="108310252#0" to="145069287#0"/>
    <trip id="236" depart="708.00" from="-72562674#1" to="-51856492#0"/>
    <trip id="237" depart="711.00" from="-31361632" to="37681592#3"/>
    <trip id="238" depart="714.00" from="718828183#3" to="1308595096#3"/>
    <trip id="239" depart="717.00" from="37547253" to="169739285"/>
    <trip id="240" depart="720.00" from="837030950#0" to="-4268967#0"/>
    <trip id="241" depart="723.00" from="1311418312" to="-542650762#1"/>
    <trip id="242" depart="726.00" from="1215634477#4" to="-37193855#3"/>
    <trip id="243" depart="729.00" from="29205273#0" to="-29458096#1"/>
    <trip id="244" depart="732.00" from="-138300617#4" to="32999435#1"/>
    <trip id="245" depart="735.00" from="25895943#2" to="118607475#1"/>
    <trip id="246" depart="738.00" from="32140444#0" to="29205272#0"/>
    <trip id="247" depart="741.00" from="403879902#0" to="-27825202#0"/>
    <trip id="248" depart="744.00" from="4942575#7" to="37193859#11"/>
    <trip id="249" depart="747.00" from="-32350901#4" to="171007013#12"/>
    <trip id="250" depart="750.00" from="-25623125#3" to="-32350852#0"/>
    <trip id="251" depart="753.00" from="830860105" to="48395120#0"/>
    <trip id="252" depart="756.00" from="-27196044#5" to="-25955083#0"/>
    <trip id="253" depart="759.00" from="29027727#0" to="24943168#4"/>
    <trip id="254" depart="762.00" from="-25626614#1" to="-24977473#1"/>
    <trip id="255" depart="765.00" from="1020252902#0" to="37193854"/>
    <trip id="256" depart="768.00" from="32140256#1" to="23258631#9"/>
    <trip id="257" depart="771.00" from="-166643660#1" to="39698490"/>
    <trip id="258" depart="774.00" from="128070690" to="37480109"/>
    <trip id="259" depart="777.00" from="-889381276#1" to="-25366167#1"/>
    <trip id="260" depart="780.00" from="-35073468#4" to="-24692328#1"/>
    <trip id="261" depart="783.00" from="-28132865" to="-32350901#2"/>
    <trip id="262" depart="786.00" from="-32140444#0" to="1204555442"/>
    <trip id="263" depart="789.00" from="39603434" to="25895966#3"/>
    <trip id="264" depart="792.00" from="914485591" to="201414945#3"/>
    <trip id="265" depart="795.00" from="-164051410#1" to="-273123309#2"/>
    <trip id="266" depart="798.00" from="-816133986#1" to="-92026769#8"/>
    <trip id="267" depart="801.00" from="-27195924#4" to="-29027727#5"/>
    <trip id="268" depart="804.00" from="-32203959#1" to="25344450"/>
    <trip id="269" depart="807.00" from="274823623#0" to="24943166#2"/>
    <trip id="270" depart="810.00" from="837030931#1" to="-39863084#0"/>
    <trip id="271" depart="813.00" from="25366901#0" to="25626559#1"/>
    <trip id="272" depart="816.00" from="110435734#0" to="1176872559"/>
    <trip id="273" depart="819.00" from="-26134468#2" to="-137463478"/>
    <trip id="274" depart="822.00" from="108310254" to="145069331#1"/>
    <trip id="275" depart="825.00" from="-23125141" to="42277295#1"/>
    <trip id="276" depart="828.00" from="-26135523#1" to="-27825202#6"/>
    <trip id="277" depart="831.00" from="25640148#1" to="-993109789#1"/>
    <trip id="278" depart="834.00" from="-37193852#3" to="144657087#8"/>
    <trip id="279" depart="837.00" from="887476721" to="25901682#1"/>
    <trip id="280" depart="840.00" from="-25665421#5" to="26134437"/>
    <trip id="281" depart="843.00" from="61940065" to="42277296"/>
    <trip id="282" depart="846.00" from="266567303" to="151167733#2"/>
    <trip id="283" depart="849.00" from="266565299" to="41204160"/>
    <trip id="284" depart="852.00" from="-32350852#1" to="-175761127#0"/>
    <trip id="285" depart="855.00" from="25366157#0" to="175761127#3"/>
    <trip id="286" depart="858.00" from="-25623127#2" to="1286768661#1"/>
    <trip id="287" depart="861.00" from="-25895966#5" to="-201789794#3"/>
    <trip id="288" depart="864.00" from="37192503" to="25640151"/>
    <trip id="289" depart="867.00" from="153692837#1" to="-25363743#2"/>
    <trip id="290" depart="870.00" from="-28132852#0" to="-33280103#0"/>
    <trip id="291" depart="873.00" from="195073418#1" to="-157305700#4"/>
    <trip id="292" depart="876.00" from="-25597196#1" to="836209352"/>
    <trip id="293" depart="879.00" from="266567306#1" to="25596993#2"/>
    <trip id="294" depart="882.00" from="24943168#0" to="29205272#0"/>
    <trip id="295" depart="885.00" from="-51743953#3" to="200741048"/>
    <trip id="296" depart="888.00" from="25623126#2" to="37193858#3"/>
    <trip id="297" depart="891.00" from="28133177#1" to="-25895945#0"/>
    <trip id="298" depart="894.00" from="1186977746#2" to="-306431310#1"/>
    <trip id="299" depart="897.00" from="204095914#1" to="25640151"/>
    <trip id="300" depart="900.00" from="110778890" to="-1286393563#1"/>
    <trip id="301" depart="903.00" from="165520703#2" to="193382573#1"/>
    <trip id="302" depart="906.00" from="-23258631#22" to="29048562#2"/>
    <trip id="303" depart="909.00" from="1285649386#0" to="-27825202#6"/>
    <trip id="304" depart="912.00" from="413332600" to="-204095914#4"/>
    <trip id="305" depart="915.00" from="914485593#1" to="29119898"/>
    <trip id="306" depart="918.00" from="-193382573#0" to="27781907#0"/>
    <trip id="307" depart="921.00" from="-27866593#1" to="25955087#0"/>
    <trip id="308" depart="924.00" from="27550700" to="26451152#1"/>
    <trip id="309" depart="927.00" from="51743953#3" to="145069287#1"/>
    <trip id="310" depart="930.00" from="30056007#0" to="75123449"/>
    <trip id="311" depart="933.00" from="-1204730983" to="1215636076#0"/>
    <trip id="312" depart="936.00" from="26134440#0" to="25596993#5"/>
    <trip id="313" depart="939.00" from="25895943#0" to="25638462#0"/>
    <trip id="314" depart="942.00" from="-1311417589#0" to="-175761127#11"/>
    <trip id="315" depart="945.00" from="26134468#1" to="1176872561"/>
    <trip id="316" depart="948.00" from="27082004" to="25665446#7"/>
    <trip id="317" depart="951.00" from="-171007013#11" to="-215826167#0"/>
    <trip id="318" depart="954.00" from="-25363743#3" to="35743405"/>
    <trip id="319" depart="957.00" from="-32509489" to="-914485585#1"/>
    <trip id="320" depart="960.00" from="39861704#4" to="202070427#0"/>
    <trip id="321" depart="963.00" from="23258631#4" to="146973236#6"/>
    <trip id="322" depart="966.00" from="1177042895" to="137463474#2"/>
    <trip id="323" depart="969.00" from="107671228" to="28132749#1"/>
    <trip id="324" depart="972.00" from="149045266#0" to="193384412#1"/>
    <trip id="325" depart="975.00" from="-153692841#1" to="24982787#1"/>
    <trip id="326" depart="978.00" from="25625950#0" to="-138002149#1"/>
    <trip id="327" depart="981.00" from="-25895945#2" to="-35743273#1"/>
    <trip id="328" depart="984.00" from="-69685051#1" to="306793669"/>
    <trip id="329" depart="987.00" from="-25626559#3" to="26972702"/>
    <trip id="330" depart="990.00" from="26972791" to="-25573246#1"/>
    <trip id="331" depart="993.00" from="-39698490" to="170398275"/>
    <trip id="332" depart="996.00" from="1268776282" to="-72562650"/>
    <trip id="333" depart="999.00" from="25366167#0" to="26223313"/>
    <trip id="334" depart="1002.00" from="391029013#2" to="1311418311#0"/>
    <trip id="335" depart="1005.00" from="42745545#4" to="-889234748"/>
    <trip id="336" depart="1008.00" from="1408873048" to="53898183#1"/>
    <trip id="337" depart="1011.00" from="-1377264646" to="-39603435#0"/>
    <trip id="338" depart="1014.00" from="-1203774481" to="-29027840"/>
    <trip id="339" depart="1017.00" from="28781036#1" to="131700651#2"/>
    <trip id="340" depart="1020.00" from="39861708#0" to="23009002#0"/>
    <trip id="341" depart="1023.00" from="-29238187#3" to="-718828179#2"/>
    <trip id="342" depart="1026.00" from="-27914965#0" to="25640093#3"/>
    <trip id="343" depart="1029.00" from="201789794#2" to="31021477#0"/>
    <trip id="344" depart="1032.00" from="24895299" to="29205272#9"/>
    <trip id="345" depart="1035.00" from="1204514102" to="175761129#4"/>
    <trip id="346" depart="1038.00" from="23258631#14" to="-149045266#0"/>
    <trip id="347" depart="1041.00" from="1199679352#1" to="-891288454#0"/>
    <trip id="348" depart="1044.00" from="72562662#2" to="24692304"/>
    <trip id="349" depart="1047.00" from="1215634477#2" to="-175761127#1"/>
    <trip id="350" depart="1050.00" from="30320943" to="-24943166#3"/>
    <trip id="351" depart="1053.00" from="-39863084#2" to="-27914965#0"/>
    <trip id="352" depart="1056.00" from="-25796964#3" to="158180482#0"/>
    <trip id="353" depart="1059.00" from="32203959#2" to="1203774481"/>
    <trip id="354" depart="1062.00" from="-25195391#1" to="-25027491#1"/>
    <trip id="355" depart="1065.00" from="97304242#1" to="391029007#1"/>
    <trip id="356" depart="1068.00" from="-75123449" to="-274823622#4"/>
    <trip id="357" depart="1071.00" from="51856495#2" to="726514446#5"/>
    <trip id="358" depart="1074.00" from="-144655547#8" to="169739285"/>
    <trip id="359" depart="1077.00" from="39860606" to="-23128480#0"/>
    <trip id="360" depart="1080.00" from="25902499#3" to="-25955087#0"/>
    <trip id="361" depart="1083.00" from="-137463475" to="-718828183#1"/>
    <trip id="362" depart="1086.00" from="30399662#1" to="27781947#1"/>
    <trip id="363" depart="1089.00" from="403879902#0" to="171786504"/>
    <trip id="364" depart="1092.00" from="26135505" to="837030931#1"/>
    <trip id="365" depart="1095.00" from="-24872530#5" to="77912233"/>
    <trip id="366" depart="1098.00" from="-25955084#1" to="-25027491#1"/>
    <trip id="367" depart="1101.00" from="-25993592#1" to="542635729#2"/>
    <trip id="368" depart="1104.00" from="-26135517#1" to="23258631#0"/>
    <trip id="369" depart="1107.00" from="39857772#0" to="97304242#0"/>
    <trip id="370" depart="1110.00" from="-169739285" to="-37681592#8"/>
    <trip id="371" depart="1113.00" from="26471933#0" to="1186977745#1"/>
    <trip id="372" depart="1116.00" from="-27196044#3" to="-25895947#1"/>
    <trip id="373" depart="1119.00" from="-841388871#1" to="25597196#1"/>
    <trip id="374" depart="1122.00" from="39863083#2" to="-124194339#0"/>
    <trip id="375" depart="1125.00" from="25794522" to="32883444#1"/>
    <trip id="376" depart="1128.00" from="28133177#0" to="-27825202#2"/>
    <trip id="377" depart="1131.00" from="-75123449" to="-60995199#0"/>
    <trip id="378" depart="1134.00" from="29205272#4" to="-274823622#7"/>
    <trip id="379" depart="1137.00" from="27202149#1" to="27761238#7"/>
    <trip id="380" depart="1140.00" from="257907858#2" to="1042557959#0"/>
    <trip id="381" depart="1143.00" from="-25955175#0" to="-25027491#0"/>
    <trip id="382" depart="1146.00" from="-39227661#0" to="25597372#0"/>
    <trip id="383" depart="1149.00" from="-27781907#1" to="-92026769#3"/>
    <trip id="384" depart="1152.00" from="-542650762#0" to="-914485588#1"/>
    <trip id="385" depart="1155.00" from="-32141020#3" to="-1207821131"/>
    <trip id="386" depart="1158.00" from="146973222" to="32203888#2"/>
    <trip id="387" depart="1161.00" from="1084717760#0" to="-144655547#5"/>
    <trip id="388" depart="1164.00" from="306240160#1" to="36792017#1"/>
    <trip id="389" depart="1167.00" from="24977473#0" to="169739285"/>
    <trip id="390" depart="1170.00" from="29119898" to="4942575#1"/>
    <trip id="391" depart="1173.00" from="26471933#0" to="-157305700#2"/>
    <trip id="392" depart="1176.00" from="-25638462#4" to="-51745097#0"/>
    <trip id="393" depart="1179.00" from="30320326" to="159743996#1"/>
    <trip id="394" depart="1182.00" from="32930763" to="-25377287#4"/>
    <trip id="395" depart="1185.00" from="149044751#0" to="29458096#2"/>
    <trip id="396" depart="1188.00" from="-27825654#0" to="25895864#1"/>
    <trip id="397" depart="1191.00" from="52572753#0" to="30435490"/>
    <trip id="398" depart="1194.00" from="25623125#5" to="-29205273#4"/>
    <trip id="399" depart="1197.00" from="-446487976" to="28133177#1"/>
    <trip id="400" depart="1200.00" from="30404130" to="422172040#4"/>
    <trip id="401" depart="1203.00" from="-204095914#0" to="10941814"/>
    <trip id="402" depart="1206.00" from="-413332605#2" to="64464384#1"/>
    <trip id="403" depart="1209.00" from="1092460659" to="390565278"/>
    <trip id="404" depart="1212.00" from="-92026769#7" to="-118607487#10"/>
    <trip id="405" depart="1215.00" from="72562650" to="-131700654#0"/>
    <trip id="406" depart="1218.00" from="-30482638#9" to="127076902#1"/>
    <trip id="407" depart="1221.00" from="42745545#6" to="-638602238"/>
    <trip id="408" depart="1224.00" from="32141019" to="29238187#2"/>
    <trip id="409" depart="1227.00" from="28133141" to="914485585#1"/>
    <trip id="410" depart="1230.00" from="27782265#3" to="52918687#0"/>
    <trip id="411" depart="1233.00" from="161678034#0" to="29027839#1"/>