<?xml version="1.0" encoding="UTF-8"?>

<!-- generated on 12/17/25 20:40:25 by Eclipse SUMO netconvert Version 1.5.0
<configuration xmlns:xsi="http://www.w3.org/2001/XMLSchema-instance" xsi:noNamespaceSchemaLocation="http://sumo.dlr.de/xsd/netconvertConfiguration.xsd">

    <input>
        <osm-files value="frankfurt_center_raw.osm"/>
    </input>

    <output>
        <output-file value="frankfurt_center.net.xml"/>
    </output>

    <projection>
        <proj.utm value="true"/>
    </projection>

    <tls_building>
        <tls.discard-simple value="true"/>
    </tls_building>

    <edge_removal>
        <keep-edges.by-vclass value="passenger"/>
        <remove-edges.isolated value="true"/>
    </edge_removal>

    <junctions>
        <no-turnarounds.tls value="true"/>
        <junctions.join value="true"/>
    </junctions>

    <report>
        <aggregate-warnings value="5"/>
    </report>

</configuration>
-->

<net version="1.3" junctionCornerDetail="5" limitTurnSpeed="5.50" xmlns:xsi="http://www.w3.org/2001/XMLSchema-instance" xsi:noNamespaceSchemaLocation="http://sumo.dlr.de/xsd/net_file.xsd">

    <location netOffset="-476561.00,-5550440.05" convBoundary="0.00,0.00,1530.57,1242.89" origBoundary="8.672183,50.105787,8.696601,50.116971" projParameter="+proj=utm +zone=32 +ellps=WGS84 +datum=WGS84 +units=m +no_defs"/>

    <type id="highway.bridleway" priority="1" numLanes="1" speed="2.78" allow="pedestrian" oneway="1" width="2.00"/>
    <type id="highway.bus_guideway" priority="1" numLanes="1" speed="27.78" allow="bus" oneway="1"/>
    <type id="highway.cycleway" priority="1" numLanes="1" speed="8.33" allow="bicycle" oneway="0" width="1.00"/>
    <type id="highway.footway" priority="1" numLanes="1" speed="2.78" allow="pedestrian" oneway="1" width="2.00"/>
    <type id="highway.ford" priority="1" numLanes="1" speed="2.78" allow="army" oneway="0"/>
    <type id="highway.living_street" priority="2" numLanes="1" speed="2.78" disallow="tram rail_urban rail rail_electric rail_fast ship" oneway="0"/>
    <type id="highway.motorway" priority="14" numLanes="2" speed="39.44" allow="private emergency authority army vip passenger hov taxi bus coach delivery truck trailer motorcycle evehicle custom1 custom2" oneway="1"/>
    <type id="highway.motorway_link" priority="9" numLanes="1" speed="22.22" allow="private emergency authority army vip passenger hov taxi bus coach delivery truck trailer motorcycle evehicle custom1 custom2" oneway="1"/>
    <type id="highway.path" priority="1" numLanes="1" speed="2.78" allow="pedestrian bicycle" oneway="1" width="2.00"/>
    <type id="highway.pedestrian" priority="1" numLanes="1" speed="2.78" allow="pedestrian" oneway="1" width="2.00"/>
    <type id="highway.primary" priority="12" numLanes="2" speed="27.78" disallow="tram rail_urban rail rail_electric rail_fast ship" oneway="0"/>
    <type id="highway.primary_link" priority="7" numLanes="1" speed="22.22" disallow="tram rail_urban rail rail_electric rail_fast ship" oneway="0"/>
    <type id="highway.raceway" priority="15" numLanes="2" speed="83.33" allow="vip" oneway="0"/>
    <type id="highway.residential" priority="3" numLanes="1" speed="13.89" disallow="tram rail_urban rail rail_electric rail_fast ship" oneway="0"/>
    <type id="highway.secondary" priority="11" numLanes="1" speed="27.78" disallow="tram rail_urban rail rail_electric rail_fast ship" oneway="0"/>
    <type id="highway.secondary_link" priority="6" numLanes="1" speed="22.22" disallow="tram rail_urban rail rail_electric rail_fast ship" oneway="0"/>
    <type id="highway.service" priority="1" numLanes="1" speed="5.56" allow="pedestrian delivery bicycle" oneway="0"/>
    <type id="highway.stairs" priority="1" numLanes="1" speed="1.39" allow="pedestrian" oneway="1" width="2.00"/>
    <type id="highway.step" priority="1" numLanes="1" speed="1.39" allow="pedestrian" oneway="1" width="2.00"/>
    <type id="highway.steps" priority="1" numLanes="1" speed="1.39" allow="pedestrian" oneway="1" width="2.00"/>
    <type id="highway.tertiary" priority="10" numLanes="1" speed="22.22" disallow="tram rail_urban rail rail_electric rail_fast ship" oneway="0"/>
    <type id="highway.tertiary_link" priority="5" numLanes="1" speed="22.22" disallow="tram rail_urban rail rail_electric rail_fast ship" oneway="0"/>
    <type id="highway.track" priority="1" numLanes="1" speed="5.56" disallow="tram rail_urban rail rail_electric rail_fast ship" oneway="0"/>
    <type id="highway.trunk" priority="13" numLanes="2" speed="27.78" disallow="pedestrian bicycle tram rail_urban rail rail_electric rail_fast ship" oneway="0"/>
    <type id="highway.trunk_link" priority="8" numLanes="1" speed="22.22" disallow="pedestrian bicycle tram rail_urban rail rail_electric rail_fast ship" oneway="0"/>
    <type id="highway.unclassified" priority="4" numLanes="1" speed="13.89" disallow="tram rail_urban rail rail_electric rail_fast ship" oneway="0"/>
    <type id="highway.unsurfaced" priority="1" numLanes="1" speed="8.33" disallow="tram rail_urban rail rail_electric rail_fast ship" oneway="0"/>
    <type id="railway.highspeed" priority="21" numLanes="1" speed="69.44" allow="rail_fast" oneway="1"/>
    <type id="railway.light_rail" priority="19" numLanes="1" speed="27.78" allow="rail_urban" oneway="1"/>
    <type id="railway.preserved" priority="16" numLanes="1" speed="27.78" allow="rail" oneway="1"/>
    <type id="railway.rail" priority="20" numLanes="1" speed="44.44" allow="rail" oneway="1"/>
    <type id="railway.subway" priority="18" numLanes="1" speed="27.78" allow="rail_urban" oneway="1"/>
    <type id="railway.tram" priority="17" numLanes="1" speed="13.89" allow="tram" oneway="1"/>

    <edge id=":10005138194_0" function="internal">
        <lane id=":10005138194_0_0" index="0" disallow="tram rail_urban rail rail_electric rail_fast ship" speed="8.33" length="0.31" shape="527.54,1080.18 527.51,1079.87"/>
    </edge>
    <edge id=":10005138194_1" function="internal">
        <lane id=":10005138194_1_0" index="0" disallow="tram rail_urban rail rail_electric rail_fast ship" speed="8.33" length="0.24" shape="530.70,1079.60 530.72,1079.84"/>
    </edge>
    <edge id=":10062990156_0" function="internal">
        <lane id=":10062990156_0_0" index="0" disallow="tram rail_urban rail rail_electric rail_fast ship" speed="11.11" length="0.10" shape="535.15,1135.56 535.15,1135.56"/>
    </edge>
    <edge id=":10062990156_1" function="internal">
        <lane id=":10062990156_1_0" index="0" disallow="tram rail_urban rail rail_electric rail_fast ship" speed="11.11" length="0.10" shape="538.28,1134.91 538.28,1134.91"/>
    </edge>
    <edge id=":1015740847_0" function="internal">
        <lane id=":1015740847_0_0" index="0" disallow="tram rail_urban rail rail_electric rail_fast ship" speed="11.11" length="8.05" shape="1423.72,394.16 1415.70,394.94"/>
    </edge>
    <edge id=":1015740847_1" function="internal">
        <lane id=":1015740847_1_0" index="0" disallow="tram rail_urban rail rail_electric rail_fast ship" speed="11.11" length="8.82" shape="1415.37,391.76 1417.95,391.01 1419.56,389.83 1421.17,388.75 1423.77,388.29"/>
        <lane id=":1015740847_1_1" index="1" disallow="tram rail_urban rail rail_electric rail_fast ship" speed="11.11" length="8.82" shape="1415.37,391.76 1417.85,391.53 1419.55,391.45 1421.25,391.46 1423.74,391.49"/>
    </edge>
    <edge id=":10166436618_0" function="internal">
        <lane id=":10166436618_0_0" index="0" disallow="tram rail_urban rail rail_electric rail_fast ship" speed="8.33" length="0.10" shape="1195.79,467.19 1195.79,467.19"/>
    </edge>
    <edge id=":10166436618_1" function="internal">
        <lane id=":10166436618_1_0" index="0" disallow="tram rail_urban rail rail_electric rail_fast ship" speed="8.33" length="0.10" shape="1195.62,464.00 1195.62,464.00"/>
    </edge>
    <edge id=":10166920699_0" function="internal">
        <lane id=":10166920699_0_0" index="0" disallow="tram rail_urban rail rail_electric rail_fast ship" speed="8.33" length="0.10" shape="1372.21,572.03 1372.21,572.03"/>
    </edge>
    <edge id=":10166952954_0" function="internal">
        <lane id=":10166952954_0_0" index="0" disallow="tram rail_urban rail rail_electric rail_fast ship" speed="8.33" length="0.10" shape="1369.12,542.79 1369.12,542.79"/>
    </edge>
    <edge id=":10689550797_0" function="internal">
        <lane id=":10689550797_0_0" index="0" disallow="tram rail_urban rail rail_electric rail_fast ship" speed="11.11" length="0.29" shape="852.88,709.00 853.14,709.06"/>
        <lane id=":10689550797_0_1" index="1" disallow="tram rail_urban rail rail_electric rail_fast ship" speed="11.11" length="0.29" shape="852.19,712.12 852.49,712.19"/>
    </edge>
    <edge id=":10689550798_0" function="internal">
        <lane id=":10689550798_0_0" index="0" disallow="tram rail_urban rail rail_electric rail_fast ship" speed="11.11" length="0.41" shape="847.69,707.83 847.75,707.85 847.78,707.86 847.82,707.87 847.88,707.89"/>
        <lane id=":10689550798_0_1" index="1" disallow="tram rail_urban rail rail_electric rail_fast ship" speed="11.11" length="0.41" shape="846.60,710.84 846.77,710.90 846.89,710.94 847.01,710.97 847.19,711.01"/>
    </edge>
    <edge id=":10689550799_0" function="internal">
        <lane id=":10689550799_0_0" index="0" disallow="tram rail_urban rail rail_electric rail_fast ship" speed="11.11" length="0.28" shape="893.22,726.66 892.91,726.62"/>
        <lane id=":10689550799_0_1" index="1" disallow="tram rail_urban rail rail_electric rail_fast ship" speed="11.11" length="0.28" shape="893.62,723.49 893.38,723.45"/>
    </edge>
    <edge id=":10689550800_0" function="internal">
        <lane id=":10689550800_0_0" index="0" disallow="tram rail_urban rail rail_electric rail_fast ship" speed="13.89" length="0.20" shape="866.12,736.04 866.08,736.23"/>
    </edge>
    <edge id=":10689550800_1" function="internal">
        <lane id=":10689550800_1_0" index="0" disallow="tram rail_urban rail rail_electric rail_fast ship" speed="13.89" length="0.31" shape="859.75,735.35 859.80,735.01"/>
        <lane id=":10689550800_1_1" index="1" disallow="tram rail_urban rail rail_electric rail_fast ship" speed="13.89" length="0.31" shape="862.92,735.79 862.96,735.52"/>
    </edge>
    <edge id=":10689550801_0" function="internal">
        <lane id=":10689550801_0_0" index="0" disallow="tram rail_urban rail rail_electric rail_fast ship" speed="13.89" length="0.33" shape="867.03,730.41 866.98,730.74"/>
    </edge>
    <edge id=":10689550801_1" function="internal">
        <lane id=":10689550801_1_0" index="0" disallow="tram rail_urban rail rail_electric rail_fast ship" speed="13.89" length="0.27" shape="860.66,729.71 860.70,729.47"/>
        <lane id=":10689550801_1_1" index="1" disallow="tram rail_urban rail rail_electric rail_fast ship" speed="13.89" length="0.27" shape="863.82,730.23 863.86,729.94"/>
    </edge>
    <edge id=":10689550802_0" function="internal">
        <lane id=":10689550802_0_0" index="0" disallow="tram rail_urban rail rail_electric rail_fast ship" speed="11.11" length="0.29" shape="889.10,715.73 889.36,715.78"/>
        <lane id=":10689550802_0_1" index="1" disallow="tram rail_urban rail rail_electric rail_fast ship" speed="11.11" length="0.29" shape="888.56,718.89 888.87,718.94"/>
    </edge>
    <edge id=":10689641811_0" function="internal">
        <lane id=":10689641811_0_0" index="0" disallow="tram rail_urban rail rail_electric rail_fast ship" speed="13.89" length="0.30" shape="869.87,701.43 869.91,701.13"/>
    </edge>
    <edge id=":10689641828_0" function="internal">
        <lane id=":10689641828_0_0" index="0" disallow="tram rail_urban rail rail_electric rail_fast ship" speed="13.89" length="0.30" shape="984.48,709.27 984.37,709.55"/>
        <lane id=":10689641828_0_1" index="1" disallow="tram rail_urban rail rail_electric rail_fast ship" speed="13.89" length="0.30" shape="981.49,708.11 981.38,708.39"/>
    </edge>
    <edge id=":10689641833_0" function="internal">
        <lane id=":10689641833_0_0" index="0" disallow="tram rail_urban rail rail_electric rail_fast ship" speed="11.11" length="0.30" shape="968.42,734.50 968.12,734.46"/>
    </edge>
    <edge id=":10689641833_1" function="internal">
        <lane id=":10689641833_1_0" index="0" disallow="tram rail_urban rail rail_electric rail_fast ship" speed="11.11" length="0.30" shape="968.85,728.10 969.15,728.14"/>
        <lane id=":10689641833_1_1" index="1" disallow="tram rail_urban rail rail_electric rail_fast ship" speed="11.11" length="0.30" shape="968.49,731.28 968.78,731.32"/>
    </edge>
    <edge id=":10689641993_0" function="internal">
        <lane id=":10689641993_0_0" index="0" disallow="tram rail_urban rail rail_electric rail_fast ship" speed="8.33" length="0.20" shape="801.99,844.09 802.05,844.11 802.09,844.12 802.13,844.13 802.19,844.14"/>
    </edge>
    <edge id=":10689642162_0" function="internal">
        <lane id=":10689642162_0_0" index="0" disallow="tram rail_urban rail rail_electric rail_fast ship" speed="11.11" length="0.10" shape="1099.99,753.70 1099.99,753.70"/>
        <lane id=":10689642162_0_1" index="1" disallow="tram rail_urban rail rail_electric rail_fast ship" speed="11.11" length="0.10" shape="1100.47,750.54 1100.47,750.54"/>
    </edge>
    <edge id=":10689642162_2" function="internal">
        <lane id=":10689642162_2_0" index="0" disallow="tram rail_urban rail rail_electric rail_fast ship" speed="11.11" length="0.10" shape="1101.89,741.04 1101.89,741.04"/>
        <lane id=":10689642162_2_1" index="1" disallow="tram rail_urban rail rail_electric rail_fast ship" speed="11.11" length="0.10" shape="1101.41,744.21 1101.41,744.21"/>
        <lane id=":10689642162_2_2" index="2" disallow="tram rail_urban rail rail_electric rail_fast ship" speed="11.11" length="0.10" shape="1100.94,747.37 1100.94,747.37"/>
    </edge>
    <edge id=":10689642164_0" function="internal">
        <lane id=":10689642164_0_0" index="0" disallow="tram rail_urban rail rail_electric rail_fast ship" speed="22.22" length="0.30" shape="1115.34,774.35 1115.35,774.05"/>
    </edge>
    <edge id=":10689642165_0" function="internal">
        <lane id=":10689642165_0_0" index="0" disallow="tram rail_urban rail rail_electric rail_fast ship" speed="22.22" length="0.10" shape="1115.57,769.24 1115.57,769.24"/>
    </edge>
    <edge id=":10689642310_0" function="internal">
        <lane id=":10689642310_0_0" index="0" disallow="tram rail_urban rail rail_electric rail_fast ship" speed="11.11" length="8.05" shape="1142.55,608.32 1143.27,610.53 1144.21,611.88 1145.31,613.17 1146.51,615.23"/>
    </edge>
    <edge id=":10689642376_0" function="internal">
        <lane id=":10689642376_0_0" index="0" disallow="tram rail_urban rail rail_electric rail_fast ship" speed="11.11" length="0.10" shape="1064.75,423.43 1064.75,423.43"/>
    </edge>
    <edge id=":10689642376_1" function="internal">
        <lane id=":10689642376_1_0" index="0" disallow="tram rail_urban rail rail_electric rail_fast ship" speed="11.11" length="0.10" shape="1065.27,420.28 1065.27,420.28"/>
    </edge>
    <edge id=":10690178503_0" function="internal">
        <lane id=":10690178503_0_0" index="0" disallow="tram rail_urban rail rail_electric rail_fast ship" speed="5.56" length="0.30" shape="1054.06,561.01 1053.95,561.29"/>
    </edge>
    <edge id=":10690178503_1" function="internal">
        <lane id=":10690178503_1_0" index="0" disallow="tram rail_urban rail rail_electric rail_fast ship" speed="5.56" length="0.30" shape="1050.99,560.06 1051.11,559.79"/>
    </edge>
    <edge id=":10692764105_0" function="internal">
        <lane id=":10692764105_0_0" index="0" disallow="tram rail_urban rail rail_electric rail_fast ship" speed="11.11" length="0.10" shape="659.94,656.79 659.94,656.79"/>
    </edge>
    <edge id=":10692764105_1" function="internal">
        <lane id=":10692764105_1_0" index="0" disallow="tram rail_urban rail rail_electric rail_fast ship" speed="11.11" length="0.10" shape="660.92,653.74 660.92,653.74"/>
    </edge>
    <edge id=":10692764106_0" function="internal">
        <lane id=":10692764106_0_0" index="0" disallow="tram rail_urban rail rail_electric rail_fast ship" speed="11.11" length="0.10" shape="685.62,664.78 685.61,664.78"/>
    </edge>
    <edge id=":10692764106_1" function="internal">
        <lane id=":10692764106_1_0" index="0" disallow="tram rail_urban rail rail_electric rail_fast ship" speed="11.11" length="0.10" shape="686.54,661.71 686.54,661.71"/>
    </edge>
    <edge id=":10692764139_0" function="internal">
        <lane id=":10692764139_0_0" index="0" disallow="tram rail_urban rail rail_electric rail_fast ship" speed="11.11" length="0.27" shape="529.07,619.03 528.84,618.96"/>
        <lane id=":10692764139_0_1" index="1" disallow="tram rail_urban rail rail_electric rail_fast ship" speed="11.11" length="0.27" shape="530.03,615.98 529.74,615.89"/>
    </edge>
    <edge id=":10692764144_0" function="internal">
        <lane id=":10692764144_0_0" index="0" disallow="tram rail_urban rail rail_electric rail_fast ship" speed="11.11" length="0.24" shape="499.05,597.11 499.16,597.15"/>
        <lane id=":10692764144_0_1" index="1" disallow="tram rail_urban rail rail_electric rail_fast ship" speed="11.11" length="0.24" shape="497.95,600.12 498.30,600.23"/>
    </edge>
    <edge id=":10692764205_0" function="internal">
        <lane id=":10692764205_0_0" index="0" disallow="tram rail_urban rail rail_electric rail_fast ship" speed="11.11" length="0.67" shape="521.17,593.31 521.16,593.51 521.15,593.64 521.13,593.78 521.09,593.97"/>
    </edge>
    <edge id=":10692764205_1" function="internal">
        <lane id=":10692764205_1_0" index="0" disallow="tram rail_urban rail rail_electric rail_fast ship" speed="11.11" length="0.22" shape="517.95,593.35 517.96,593.29 517.97,593.24 517.97,593.20 517.98,593.13"/>
    </edge>
    <edge id=":10692764227_0" function="internal">
        <lane id=":10692764227_0_0" index="0" disallow="tram rail_urban rail rail_electric rail_fast ship" speed="13.89" length="0.30" shape="516.51,621.68 516.47,621.98"/>
    </edge>
    <edge id=":10692764227_1" function="internal">
        <lane id=":10692764227_1_0" index="0" disallow="tram rail_urban rail rail_electric rail_fast ship" speed="13.89" length="0.30" shape="513.30,621.50 513.35,621.21"/>
    </edge>
    <edge id=":10695195925_0" function="internal">
        <lane id=":10695195925_0_0" index="0" disallow="tram rail_urban rail rail_electric rail_fast ship" speed="8.33" length="0.31" shape="1163.37,623.28 1163.07,623.29"/>
    </edge>
    <edge id=":10695195925_1" function="internal">
        <lane id=":10695195925_1_0" index="0" disallow="tram rail_urban rail rail_electric rail_fast ship" speed="8.33" length="0.29" shape="1163.01,620.09 1163.30,620.08"/>
    </edge>
    <edge id=":10695195931_0" function="internal">
        <lane id=":10695195931_0_0" index="0" disallow="tram rail_urban rail rail_electric rail_fast ship" speed="8.33" length="0.30" shape="1159.75,623.35 1159.45,623.36"/>
    </edge>
    <edge id=":10695195931_1" function="internal">
        <lane id=":10695195931_1_0" index="0" disallow="tram rail_urban rail rail_electric rail_fast ship" speed="8.33" length="0.30" shape="1159.39,620.16 1159.69,620.15"/>
    </edge>
    <edge id=":10697009002_0" function="internal">
        <lane id=":10697009002_0_0" index="0" disallow="tram rail_urban rail rail_electric rail_fast ship" speed="11.11" length="0.20" shape="326.85,412.87 326.95,412.90"/>
        <lane id=":10697009002_0_1" index="1" disallow="tram rail_urban rail rail_electric rail_fast ship" speed="11.11" length="0.20" shape="325.69,415.85 325.98,415.95"/>
    </edge>
    <edge id=":10697020415_0" function="internal">
        <lane id=":10697020415_0_0" index="0" disallow="tram rail_urban rail rail_electric rail_fast ship" speed="8.33" length="0.18" shape="341.82,410.65 341.78,410.82"/>
    </edge>
    <edge id=":10697020415_1" function="internal">
        <lane id=":10697020415_1_0" index="0" disallow="tram rail_urban rail rail_electric rail_fast ship" speed="8.33" length="0.29" shape="338.66,410.14 338.72,409.85"/>
    </edge>
    <edge id=":10697234506_0" function="internal">
        <lane id=":10697234506_0_0" index="0" disallow="tram rail_urban rail rail_electric rail_fast ship" speed="5.56" length="0.28" shape="197.40,408.69 197.45,408.97"/>
    </edge>
    <edge id=":10698019682_0" function="internal">
        <lane id=":10698019682_0_0" index="0" disallow="tram rail_urban rail rail_electric rail_fast ship" speed="13.89" length="0.22" shape="1493.62,1023.35 1493.41,1023.27"/>
    </edge>
    <edge id=":10698019685_0" function="internal">
        <lane id=":10698019685_0_0" index="0" disallow="tram rail_urban rail rail_electric rail_fast ship" speed="11.11" length="1.40" shape="1495.95,1035.84 1496.31,1035.25 1496.59,1034.87 1496.91,1034.52 1497.42,1034.05"/>
        <lane id=":10698019685_0_1" index="1" disallow="tram rail_urban rail rail_electric rail_fast ship" speed="11.11" length="1.40" shape="1498.69,1037.50 1498.91,1037.14 1499.07,1036.91 1499.27,1036.70 1499.57,1036.42"/>
        <lane id=":10698019685_0_2" index="2" disallow="tram rail_urban rail rail_electric rail_fast ship" speed="11.11" length="1.40" shape="1501.43,1039.15 1501.50,1039.03 1501.56,1038.96 1501.62,1038.89 1501.72,1038.79"/>
    </edge>
    <edge id=":10698019688_0" function="internal">
        <lane id=":10698019688_0_0" index="0" disallow="tram rail_urban rail rail_electric rail_fast ship" speed="13.89" length="0.30" shape="1510.64,1038.74 1510.71,1038.69 1510.76,1038.65 1510.81,1038.62 1510.89,1038.58"/>
    </edge>
    <edge id=":10698019700_0" function="internal">
        <lane id=":10698019700_0_0" index="0" disallow="tram rail_urban rail rail_electric rail_fast ship" speed="13.89" length="0.26" shape="1506.07,1042.33 1506.12,1042.27 1506.16,1042.24 1506.20,1042.20 1506.26,1042.16"/>
    </edge>
    <edge id=":10699980530_0" function="internal">
        <lane id=":10699980530_0_0" index="0" disallow="tram rail_urban rail rail_electric rail_fast ship" speed="2.78" length="0.10" shape="1062.92,1093.56 1062.92,1093.56"/>
    </edge>
    <edge id=":10727389475_0" function="internal">
        <lane id=":10727389475_0_0" index="0" disallow="tram rail_urban rail rail_electric rail_fast ship" speed="11.11" length="0.10" shape="96.01,544.06 96.01,544.06"/>
        <lane id=":10727389475_0_1" index="1" disallow="tram rail_urban rail rail_electric rail_fast ship" speed="11.11" length="0.10" shape="93.24,542.45 93.24,542.45"/>
        <lane id=":10727389475_0_2" index="2" disallow="tram rail_urban rail rail_electric rail_fast ship" speed="11.11" length="0.10" shape="90.47,540.84 90.47,540.84"/>
        <lane id=":10727389475_0_3" index="3" disallow="tram rail_urban rail rail_electric rail_fast ship" speed="11.11" length="0.10" shape="87.71,539.24 87.71,539.24"/>
    </edge>
    <edge id=":11119682890_0" function="internal">
        <lane id=":11119682890_0_0" index="0" disallow="tram rail_urban rail rail_electric rail_fast ship" speed="8.33" length="0.30" shape="651.75,784.45 652.04,784.52"/>
    </edge>
    <edge id=":11119765889_0" function="internal">
        <lane id=":11119765889_0_0" index="0" disallow="tram rail_urban rail rail_electric rail_fast ship" speed="8.33" length="0.10" shape="581.37,762.65 581.37,762.65"/>
    </edge>
    <edge id=":1116037885_0" function="internal">
        <lane id=":1116037885_0_0" index="0" disallow="tram rail_urban rail rail_electric rail_fast ship" speed="11.11" length="0.99" shape="128.00,488.95 128.48,488.12"/>
        <lane id=":1116037885_0_1" index="1" disallow="tram rail_urban rail rail_electric rail_fast ship" speed="11.11" length="0.99" shape="125.22,487.36 125.71,486.51"/>
        <lane id=":1116037885_0_2" index="2" disallow="tram rail_urban rail rail_electric rail_fast ship" speed="11.11" length="0.99" shape="122.45,485.77 122.95,484.90"/>
        <lane id=":1116037885_0_3" index="3" disallow="tram rail_urban rail rail_electric rail_fast ship" speed="11.11" length="0.99" shape="119.67,484.18 120.18,483.30"/>
    </edge>
    <edge id=":11221084952_0" function="internal">
        <lane id=":11221084952_0_0" index="0" disallow="tram rail_urban rail rail_electric rail_fast ship" speed="11.11" length="0.10" shape="550.42,317.16 550.42,317.16"/>
    </edge>
    <edge id=":11221084952_1" function="internal">
        <lane id=":11221084952_1_0" index="0" disallow="tram rail_urban rail rail_electric rail_fast ship" speed="11.11" length="0.10" shape="551.51,314.16 551.51,314.16"/>
    </edge>
    <edge id=":1125523086_0" function="internal">
        <lane id=":1125523086_0_0" index="0" disallow="tram rail_urban rail rail_electric rail_fast ship" speed="13.89" length="0.10" shape="510.61,652.33 510.63,652.23"/>
    </edge>
    <edge id=":1125523086_1" function="internal">
        <lane id=":1125523086_1_0" index="0" disallow="tram rail_urban rail rail_electric rail_fast ship" speed="13.89" length="0.10" shape="507.46,651.76 507.48,651.66"/>
    </edge>
    <edge id=":1137603663_0" function="internal">
        <lane id=":1137603663_0_0" index="0" disallow="tram rail_urban rail rail_electric rail_fast ship" speed="5.56" length="8.57" shape="1022.61,1088.82 1020.24,1088.86 1018.39,1089.58 1017.06,1091.00 1016.24,1093.11"/>
    </edge>
    <edge id=":1137603663_1" function="internal">
        <lane id=":1137603663_1_0" index="0" disallow="tram rail_urban rail rail_electric rail_fast ship" speed="5.56" length="11.20" shape="1022.61,1088.82 1018.98,1088.05 1016.52,1086.72 1015.24,1084.85 1015.14,1082.42"/>
    </edge>
    <edge id=":1137603663_2" function="internal">
        <lane id=":1137603663_2_0" index="0" disallow="tram rail_urban rail rail_electric rail_fast ship" speed="8.33" length="10.33" shape="1018.29,1082.99 1016.24,1093.11"/>
    </edge>
    <edge id=":1137603663_3" function="internal">
        <lane id=":1137603663_3_0" index="0" disallow="tram rail_urban rail rail_electric rail_fast ship" speed="3.65" length="2.34" shape="1018.29,1082.99 1017.29,1084.03 1016.43,1084.28"/>
    </edge>
    <edge id=":1137603663_6" function="internal">
        <lane id=":1137603663_6_0" index="0" disallow="tram rail_urban rail rail_electric rail_fast ship" speed="3.65" length="2.34" shape="1016.43,1084.28 1015.72,1083.75 1015.14,1082.42"/>
    </edge>
    <edge id=":1137603663_4" function="internal">
        <lane id=":1137603663_4_0" index="0" disallow="tram rail_urban rail rail_electric rail_fast ship" speed="8.33" length="10.18" shape="1013.12,1092.40 1015.14,1082.42"/>
    </edge>
    <edge id=":1137603663_5" function="internal">
        <lane id=":1137603663_5_0" index="0" disallow="tram rail_urban rail rail_electric rail_fast ship" speed="3.65" length="2.34" shape="1013.12,1092.40 1014.17,1091.41 1015.04,1091.20"/>
    </edge>
    <edge id=":1137603663_7" function="internal">
        <lane id=":1137603663_7_0" index="0" disallow="tram rail_urban rail rail_electric rail_fast ship" speed="3.65" length="2.34" shape="1015.04,1091.20 1015.73,1091.76 1016.24,1093.11"/>
    </edge>
    <edge id=":1137603669_0" function="internal">
        <lane id=":1137603669_0_0" index="0" disallow="tram rail_urban rail rail_electric rail_fast ship" speed="11.11" length="0.25" shape="1104.68,1086.59 1104.69,1086.34"/>
    </edge>
    <edge id=":1138233084_0" function="internal">
        <lane id=":1138233084_0_0" index="0" disallow="tram rail_urban rail rail_electric rail_fast ship" speed="2.78" length="0.30" shape="1091.45,1096.39 1091.15,1096.37"/>
    </edge>
    <edge id=":1138233087_0" function="internal">
        <lane id=":1138233087_0_0" index="0" disallow="tram rail_urban rail rail_electric rail_fast ship" speed="2.78" length="0.26" shape="1072.65,1094.70 1072.38,1094.68"/>
    </edge>
    <edge id=":1144707956_0" function="internal">
        <lane id=":1144707956_0_0" index="0" disallow="tram rail_urban rail rail_electric rail_fast ship" speed="11.11" length="0.36" shape="193.07,675.59 192.63,675.41"/>
        <lane id=":1144707956_0_1" index="1" disallow="tram rail_urban rail rail_electric rail_fast ship" speed="11.11" length="0.36" shape="194.29,672.64 193.96,672.50"/>
        <lane id=":1144707956_0_2" index="2" disallow="tram rail_urban rail rail_electric rail_fast ship" speed="11.11" length="0.36" shape="195.52,669.68 195.29,669.59"/>
    </edge>
    <edge id=":11584355067_0" function="internal">
        <lane id=":11584355067_0_0" index="0" disallow="tram rail_urban rail rail_electric rail_fast ship" speed="16.67" length="10.72" shape="1120.33,805.40 1120.20,802.38 1119.52,800.24 1118.46,798.17 1117.14,795.34"/>
    </edge>
    <edge id=":11584355067_1" function="internal">
        <lane id=":11584355067_1_0" index="0" disallow="tram rail_urban rail rail_electric rail_fast ship" speed="11.11" length="10.70" shape="1120.33,805.40 1120.85,794.72"/>
    </edge>
    <edge id=":11807148580_0" function="internal">
        <lane id=":11807148580_0_0" index="0" disallow="tram rail_urban rail rail_electric rail_fast ship" speed="8.33" length="0.10" shape="1365.67,1008.67 1365.67,1008.67"/>
    </edge>
    <edge id=":11807148580_1" function="internal">
        <lane id=":11807148580_1_0" index="0" disallow="tram rail_urban rail rail_electric rail_fast ship" speed="8.33" length="0.10" shape="1365.79,1005.47 1365.79,1005.47"/>
    </edge>
    <edge id=":11922819018_0" function="internal">
        <lane id=":11922819018_0_0" index="0" disallow="tram rail_urban rail rail_electric rail_fast ship" speed="11.11" length="0.26" shape="269.64,206.52 269.39,206.42"/>
    </edge>
    <edge id=":11922819018_1" function="internal">
        <lane id=":11922819018_1_0" index="0" disallow="tram rail_urban rail rail_electric rail_fast ship" speed="11.11" length="0.31" shape="270.55,203.44 270.84,203.55"/>
    </edge>