<?xml version="1.0" encoding="UTF-8"?>

<!-- generated on 12/17/25 20:40:47 by Eclipse SUMO polyconvert Version 1.5.0
<configuration xmlns:xsi="http://www.w3.org/2001/XMLSchema-instance" xsi:noNamespaceSchemaLocation="http://sumo.dlr.de/xsd/polyconvertConfiguration.xsd">

    <input>
        <net-file value="frankfurt_center.net.xml"/>
        <osm-files value="frankfurt_center_raw.osm"/>
    </input>

    <output>
        <output-file value="frankfurt_center.poly.xml"/>
    </output>

    <processing>
        <poi-layer-offset value="5"/>
    </processing>

</configuration>
-->

<additional xmlns:xsi="http://www.w3.org/2001/XMLSchema-instance" xsi:noNamespaceSchemaLocation="http://sumo.dlr.de/xsd/additional_file.xsd">
    <location netOffset="-476561.00,-5550440.05" convBoundary="-0.00,-0.00,1743.50,1242.89" origBoundary="8.672183,50.105787,8.696601,50.116971" projParameter="+proj=utm +zone=32 +ellps=WGS84 +datum=WGS84 +units=m +no_defs"/>

    <poly id="1000420930" type="building" color="255,230,230" fill="1" layer="-1.00" shape="246.505003,385.237745 217.603932,380.660084 218.484677,376.008576 226.448351,378.820374 230.677635,368.061185 242.148131,369.923782 241.806163,371.859947 249.985460,373.280988 246.505003,385.237745"/>
    <poly id="1001560647" type="building" color="255,230,230" fill="1" layer="-1.00" shape="219.340213,314.584352 222.215044,306.421738 260.394341,320.021001 257.647589,328.049612 219.340213,314.584352"/>
    <poly id="1004220480" type="building" color="255,230,230" fill="1" layer="-1.00" shape="807.225000,559.243179 802.685880,557.872566 801.354622,557.566883 798.822273,567.417794 798.737885,567.751717 804.177168,568.940609 804.524087,568.127463 807.225000,559.243179"/>
    <poly id="1004220481" type="building" color="255,230,230" fill="1" layer="-1.00" shape="794.009599,555.496569 791.795862,564.601170 796.803373,566.825938 798.822273,567.417794 801.354622,557.566883 798.039881,556.591361 794.009599,555.496569"/>
    <poly id="1022606030" type="building" color="255,230,230" fill="1" layer="-1.00" shape="753.796638,163.461387 757.417790,164.124253 756.299460,170.199887 752.678313,169.537021 753.796638,163.461387"/>
    <poly id="1024490801" type="building" color="255,230,230" fill="1" layer="-1.00" shape="1108.939440,571.015204 1108.135381,551.438296 1110.108560,551.363331 1114.569595,551.177894 1117.936833,551.041509 1118.207922,557.733915 1118.601137,557.721152 1118.712999,560.533750 1118.391287,560.546214 1118.797687,570.529230 1108.939440,571.015204"/>
    <poly id="1024490802" type="building" color="255,230,230" fill="1" layer="-1.00" shape="1109.862769,590.046790 1108.939440,571.015204 1118.797687,570.529230 1119.102387,576.710029 1119.466999,576.697386 1119.607880,579.609932 1119.207563,579.633843 1119.692473,589.583175 1109.862769,590.046790"/>
    <poly id="1024490803" type="building" color="255,230,230" fill="1" layer="-1.00" shape="1110.749365,608.845035 1109.862769,590.046790 1119.692473,589.583175 1119.983103,595.819627 1120.354865,595.806954 1120.488780,598.764005 1120.124169,598.776648 1120.579034,608.381421 1110.749365,608.845035"/>
    <poly id="1071355557" type="building" color="255,230,230" fill="1" layer="-1.00" shape="441.449984,1004.159161 442.338991,1003.065684 442.235975,1002.387877 442.957703,1002.295817 443.796950,1001.269268 444.830086,1002.098732 445.572975,1001.939868 445.612124,1002.729138 446.695498,1003.602861 445.898908,1004.573633 445.923805,1005.374083 445.251742,1005.376977 444.341429,1006.503903 443.322593,1005.674377 442.514784,1005.700095 442.526209,1005.032914 441.449984,1004.159161"/>
    <poly id="1071355557#1" type="shop" color="237,199,255" fill="1" layer="-1.00" shape="441.449984,1004.159161 442.338991,1003.065684 442.235975,1002.387877 442.957703,1002.295817 443.796950,1001.269268 444.830086,1002.098732 445.572975,1001.939868 445.612124,1002.729138 446.695498,1003.602861 445.898908,1004.573633 445.923805,1005.374083 445.251742,1005.376977 444.341429,1006.503903 443.322593,1005.674377 442.514784,1005.700095 442.526209,1005.032914 441.449984,1004.159161"/>
    <poly id="1071564643" type="building" color="255,230,230" fill="1" layer="-1.00" shape="55.643669,774.218183 74.635309,774.468603 72.884539,768.160755 56.073165,767.800723 55.643669,774.218183"/>
    <poly id="1071608175" type="building" color="255,230,230" fill="1" layer="-1.00" shape="126.930144,574.534287 131.587289,570.144247 129.790325,567.995034 132.156424,566.205689 134.608520,564.460445 137.675633,562.734756 140.094020,561.456653 142.377572,560.412636 145.211546,559.332862 148.774455,558.160958 153.153506,557.218994 159.213489,556.414248 163.274759,556.385424 166.878997,556.492020 170.299171,557.021937 173.598421,557.696929 176.806219,558.717005 179.678440,559.849733 182.538442,561.460627 184.696803,562.863320 182.238895,564.919894 183.853307,566.202649 185.634400,567.996146 187.388635,570.190038 172.264964,581.508198 172.195062,581.875424 168.067909,581.548727 163.289895,581.180394 158.205442,581.046898 152.520131,580.860432 147.636949,580.970683 143.326363,581.211866 139.066071,581.508427 138.401202,581.533566 138.256743,581.200631 126.930144,574.534287"/>
    <poly id="1071624036" type="building" color="255,230,230" fill="1" layer="-1.00" shape="75.261501,291.729820 77.153871,292.777831 75.706589,295.397093 73.842870,294.360076 75.261501,291.729820"/>
    <poly id="1071624037" type="building" color="255,230,230" fill="1" layer="-1.00" shape="83.906536,288.423060 81.612712,287.143307 80.342537,289.383752 82.643559,290.674592 83.906536,288.423060"/>
    <poly id="1071624040" type="building" color="255,230,230" fill="1" layer="-1.00" shape="304.384329,243.899648 309.169376,245.824717 315.041945,231.378144 310.263989,229.441920 304.384329,243.899648"/>
    <poly id="1071624043" type="building" color="255,230,230" fill="1" layer="-1.00" shape="320.173555,270.405298 314.673234,268.427724 317.556253,260.465267 323.958952,262.761385 320.173555,270.405298"/>
    <poly id="1071624047" type="building" color="255,230,230" fill="1" layer="-1.00" shape="365.196526,322.168909 350.428808,313.526690 348.429632,319.183707 362.029594,327.319501 365.196526,322.168909"/>
    <poly id="1071670400" type="building" color="255,230,230" fill="1" layer="-1.00" shape="1042.145821,560.176133 1042.981663,558.293544 1043.824609,556.399806 1037.635262,553.668299 1036.820639,555.495206 1035.963628,557.444598 1042.145821,560.176133"/>
    <poly id="1071685723" type="building" color="255,230,230" fill="1" layer="-1.00" shape="1062.304517,461.678794 1066.638295,463.528598 1064.924548,467.505203 1060.569229,465.633253 1062.304517,461.678794"/>
    <poly id="1071710916" type="building" color="255,230,230" fill="1" layer="-1.00" shape="482.174106,764.539424 480.700121,764.290029 480.175929,763.769697 479.165277,764.852572 481.081862,766.601108 482.174106,764.539424"/>
    <poly id="1071710922" type="building" color="255,230,230" fill="1" layer="-1.00" shape="337.757500,791.058162 339.473089,790.961788 339.457635,790.695003 340.679882,790.600764 343.139705,825.358772 345.644783,839.179787 344.637379,839.350928 348.303471,860.416415 342.369779,862.243336 337.849360,792.458740 337.757500,791.058162"/>
    <poly id="1071727338" type="building" color="255,230,230" fill="1" layer="-1.00" shape="627.671772,701.205486 627.481620,701.884548 628.139753,701.959568 627.411140,707.144064 638.951362,708.795952 639.736997,703.566740 640.153131,700.551756 635.885021,702.348999 627.671772,701.205486"/>
    <poly id="1071727340" type="building" color="255,230,230" fill="1" layer="-1.00" shape="627.671772,701.205486 635.885021,702.348999 640.153131,700.551756 640.997127,697.268092 643.165766,697.770299 644.404943,693.261876 637.996128,691.054354 637.250856,694.015150 635.683102,693.577092 635.599011,693.977729 629.629195,692.435473 627.671772,701.205486"/>
    <poly id="1071727343" type="building" color="255,230,230" fill="1" layer="-1.00" shape="597.221669,756.907669 595.739871,756.502612 594.250876,756.086466 597.724898,744.174436 600.939414,745.139143 600.642730,745.985445 597.221669,756.907669"/>
    <poly id="1071736802" type="building" color="255,230,230" fill="1" layer="-1.00" shape="640.038192,812.607981 639.885216,813.620449 632.471926,812.240019 639.936111,797.075387 642.948729,797.651822 642.695368,798.598006 640.347880,798.063206 634.571448,809.962806 640.038192,812.607981"/>
    <poly id="1072070974" type="building" color="255,230,230" fill="1" layer="-1.00" shape="951.297601,1111.063037 951.211637,1112.720107 950.487194,1125.743330 973.757331,1127.035207 974.073048,1122.208299 978.288096,1123.146783 979.476237,1118.360680 980.234921,1118.557627 981.270869,1113.282935 951.297601,1111.063037"/>
    <poly id="1072252952" type="building" color="255,230,230" fill="1" layer="-1.00" shape="1422.594360,1040.762104 1422.250761,1037.194373 1425.731725,1036.968760 1428.719462,1036.767421 1429.953368,1049.915921 1423.550725,1050.753997 1422.594360,1040.762104"/>
    <poly id="1072252953" type="building" color="255,230,230" fill="1" layer="-1.00" shape="1420.111066,1017.656278 1401.361777,1016.988682 1401.267053,1018.289977 1410.849103,1018.639589 1420.273585,1018.923155 1420.111066,1017.656278"/>
    <poly id="1072252954" type="building" color="255,230,230" fill="1" layer="-1.00" shape="1442.677081,1019.764781 1442.692895,1018.397098 1420.111066,1017.656278 1420.273585,1018.923155 1442.677081,1019.764781"/>
    <poly id="1072252960" type="building" color="255,230,230" fill="1" layer="-1.00" shape="1176.069484,1034.668439 1175.354435,1034.649183 1174.617891,1034.618898 1175.344005,1013.289929 1175.887466,1013.309900 1213.372436,1014.788178 1212.729301,1033.759601 1211.677667,1033.608315 1212.269666,1016.093673 1198.704209,1015.505278 1176.636634,1014.652156 1176.069484,1034.668439"/>
    <poly id="1072252961" type="building" color="255,230,230" fill="1" layer="-1.00" shape="1175.780009,1045.832965 1174.943419,1045.814216 1174.328511,1045.805662 1174.617891,1034.618898 1175.354435,1034.649183 1176.069484,1034.668439 1175.780009,1045.832965"/>
    <poly id="1072279762" type="building" color="255,230,230" fill="1" layer="-1.00" shape="1398.361772,979.586172 1394.930059,976.164620 1399.494389,971.642645 1401.906768,974.078831 1402.919090,975.097585 1398.361772,979.586172"/>
    <poly id="1072279773" type="building" color="255,230,230" fill="1" layer="-1.00" shape="1383.981731,1095.081361 1380.808877,1095.461392 1373.927235,1096.290388 1376.851478,1110.143498 1377.645703,1113.753839 1382.072010,1110.466609 1381.067431,1102.665333 1384.862101,1102.238258 1383.981731,1095.081361"/>
    <poly id="1072279774" type="building" color="255,230,230" fill="1" layer="-1.00" shape="1378.302920,1080.750402 1380.784659,1084.409364 1381.910277,1092.087832 1380.808877,1095.461392 1373.927235,1096.290388 1370.857184,1081.759634 1378.302920,1080.750402"/>
    <poly id="1072279778" type="building" color="255,230,230" fill="1" layer="-1.00" shape="1398.196258,1098.814178 1397.591500,1094.335782 1395.643984,1079.800380 1402.525054,1078.826869 1405.597688,1078.413908 1405.597432,1081.816274 1403.810791,1082.001550 1404.938533,1090.202600 1407.311200,1089.959311 1407.667765,1091.470002 1407.769602,1091.892098 1398.196258,1098.814178"/>
    <poly id="1072361747" type="building" color="255,230,230" fill="1" layer="-1.00" shape="1431.075847,966.664545 1432.616323,965.724212 1434.189293,963.994308 1438.410483,959.473781 1437.199623,958.856117 1436.082580,958.449323 1435.001789,958.164688 1433.807062,957.991711 1432.462375,957.863828 1431.447168,957.879132 1430.439615,958.016711 1429.625241,958.186851 1423.783600,959.856526 1431.075847,966.664545"/>
    <poly id="1098990271" type="building" color="255,230,230" fill="1" layer="-1.00" shape="549.229178,1146.828949 551.187169,1151.601661 555.601786,1162.390262 554.473516,1162.706426 554.077250,1163.664347 566.417233,1193.676843 566.861780,1193.975147 567.384111,1194.072979 580.394719,1188.724676 610.890872,1176.185534 616.928787,1173.713569 620.504400,1172.241714 620.273339,1171.708996 620.694392,1171.529295 618.007015,1165.036253 615.138947,1158.088112 618.621771,1156.650009 617.673145,1152.162048 616.164088,1148.699417 614.918157,1138.219665 614.109585,1131.373909 613.219609,1123.883607 591.595091,1126.244360 583.784272,1127.100591 584.436700,1132.534917 584.836907,1135.835503 583.345246,1136.442308 582.067688,1136.959245 580.723992,1133.718293 547.544381,1137.407385 548.489399,1142.707026 549.229178,1146.828949"/>
    <poly id="11018815" type="amenity" color="237,199,199" fill="1" layer="-1.00" shape="930.651986,555.374658 937.055732,556.370599 936.507548,560.331216 935.427446,560.235699 935.260434,561.326049 936.347686,561.421536 935.496918,566.539787 934.559446,566.354718 934.313313,567.334214 935.336728,567.552277 934.442378,574.205112 933.745129,575.030845 934.376922,575.639718 935.408215,574.334467 947.492225,576.029207 948.756511,577.413736 949.419277,576.888359 948.362627,575.569668 949.217184,569.650846 951.077309,569.898745 951.300730,568.619137 949.433641,568.415744 950.107212,563.665162 951.967293,563.901943 952.133325,562.578102 950.287685,562.374617 951.065654,556.945347 956.938922,557.621100 956.842564,558.511013 957.302705,559.109493 959.971275,559.465179 960.201158,559.719944 961.281354,559.837704 961.631011,559.669449 964.099141,559.970387 964.640544,559.489998 964.765784,558.666676 968.214100,559.108035 968.595682,559.729084 969.108484,559.248816 973.014459,559.699371 974.189938,558.671491 974.748528,555.478035 974.125143,553.468148 977.489424,550.930018 978.872876,551.746992 979.369650,550.855395 977.979000,550.027332 978.482584,545.655511 980.089606,545.226235 979.864255,544.348794 978.400190,544.766350 975.616635,540.875348 976.571211,540.026301 976.949178,536.388851 976.272238,535.246458 954.266320,532.537137 954.581371,529.244634 956.412769,529.459299 956.600536,528.202080 954.797831,528.009532 955.357477,523.370620 957.146070,523.607703 957.319021,522.228238 955.559169,522.024391 955.828431,519.743895 956.236438,516.451001 957.302388,516.579939 958.186071,515.875732 958.336963,514.351815 957.553044,513.276589 958.222547,512.651115 957.654773,511.964138 956.542843,512.802732 943.578133,510.855948 942.634983,509.325522 941.830048,510.051638 942.592052,511.015767 942.242784,512.974154 937.313956,512.450100 937.452276,511.337633 936.651118,511.263178 936.541353,512.364405 936.240901,512.332315 936.227257,512.488036 935.376047,512.413792 935.308247,513.292466 936.180813,513.344383 935.717210,517.015553 934.823052,516.930371 934.748196,517.831312 935.585197,517.927854 935.565340,518.305978 935.880045,518.326890 935.237424,523.633284 934.879818,523.612553 934.790145,524.391250 930.225896,523.843429 930.337019,523.064641 929.657464,523.000793 929.539097,523.757373 925.103364,523.164539 924.433632,523.734424 924.077666,527.494092 921.645223,527.181904 921.368967,529.495787 921.195322,530.708473 921.097516,531.253708 918.851075,530.962974 918.637155,532.798485 907.197826,531.401298 907.454597,529.554487 903.713143,529.125523 903.285455,532.829902 905.152700,533.066635 903.685045,544.491877 901.889541,544.310435 901.425636,547.903779 904.551688,548.224149 903.173292,548.608007 903.000309,549.976355 903.753428,550.529118 904.933729,550.646444 904.858315,551.413962 903.592070,551.263642 903.481750,552.231447 904.719252,552.348531 904.230827,556.909317 902.757181,556.748754 902.737373,557.137997 904.118114,557.310071 904.118864,557.487969 904.190930,557.621091 904.291502,557.731855 904.477736,557.808901 904.382560,558.976780 905.033416,559.018509 905.128592,557.850629 909.321004,558.399998 909.161569,559.590386 909.905472,559.653960 910.093976,558.574637 912.247173,558.799048 914.736710,559.088754 914.998520,556.741574 915.241601,555.039366 915.978542,555.147446 916.202564,554.012380 921.640615,554.912306 921.793887,553.955440 930.651986,555.374658"/>
    <poly id="11018815#1" type="building" color="255,230,230" fill="1" layer="-1.00" shape="930.651986,555.374658 937.055732,556.370599 936.507548,560.331216 935.427446,560.235699 935.260434,561.326049 936.347686,561.421536 935.496918,566.539787 934.559446,566.354718 934.313313,567.334214 935.336728,567.552277 934.442378,574.205112 933.745129,575.030845 934.376922,575.639718 935.408215,574.334467 947.492225,576.029207 948.756511,577.413736 949.419277,576.888359 948.362627,575.569668 949.217184,569.650846 951.077309,569.898745 951.300730,568.619137 949.433641,568.415744 950.107212,563.665162 951.967293,563.901943 952.133325,562.578102 950.287685,562.374617 951.065654,556.945347 956.938922,557.621100 956.842564,558.511013 957.302705,559.109493 959.971275,559.465179 960.201158,559.719944 961.281354,559.837704 961.631011,559.669449 964.099141,559.970387 964.640544,559.489998 964.765784,558.666676 968.214100,559.108035 968.595682,559.729084 969.108484,559.248816 973.014459,559.699371 974.189938,558.671491 974.748528,555.478035 974.125143,553.468148 977.489424,550.930018 978.872876,551.746992 979.369650,550.855395 977.979000,550.027332 978.482584,545.655511 980.089606,545.226235 979.864255,544.348794 978.400190,544.766350 975.616635,540.875348 976.571211,540.026301 976.949178,536.388851 976.272238,535.246458 954.266320,532.537137 954.581371,529.244634 956.412769,529.459299 956.600536,528.202080 954.797831,528.009532 955.357477,523.370620 957.146070,523.607703 957.319021,522.228238 955.559169,522.024391 955.828431,519.743895 956.236438,516.451001 957.302388,516.579939 958.186071,515.875732 958.336963,514.351815 957.553044,513.276589 958.222547,512.651115 957.654773,511.964138 956.542843,512.802732 943.578133,510.855948 942.634983,509.325522 941.830048,510.051638 942.592052,511.015767 942.242784,512.974154 937.313956,512.450100 937.452276,511.337633 936.651118,511.263178 936.541353,512.364405 936.240901,512.332315 936.227257,512.488036 935.376047,512.413792 935.308247,513.292466 936.180813,513.344383 935.717210,517.015553 934.823052,516.930371 934.748196,517.831312 935.585197,517.927854 935.565340,518.305978 935.880045,518.326890 935.237424,523.633284 934.879818,523.612553 934.790145,524.391250 930.225896,523.843429 930.337019,523.064641 929.657464,523.000793 929.539097,523.757373 925.103364,523.164539 924.433632,523.734424 924.077666,527.494092 921.645223,527.181904 921.368967,529.495787 921.195322,530.708473 921.097516,531.253708 918.851075,530.962974 918.637155,532.798485 907.197826,531.401298 907.454597,529.554487 903.713143,529.125523 903.285455,532.829902 905.152700,533.066635 903.685045,544.491877 901.889541,544.310435 901.425636,547.903779 904.551688,548.224149 903.173292,548.608007 903.000309,549.976355 903.753428,550.529118 904.933729,550.646444 904.858315,551.413962 903.592070,551.263642 903.481750,552.231447 904.719252,552.348531 904.230827,556.909317 902.757181,556.748754 902.737373,557.137997 904.118114,557.310071 904.118864,557.487969 904.190930,557.621091 904.291502,557.731855 904.477736,557.808901 904.382560,558.976780 905.033416,559.018509 905.128592,557.850629 909.321004,558.399998 909.161569,559.590386 909.905472,559.653960 910.093976,558.574637 912.247173,558.799048 914.736710,559.088754 914.998520,556.741574 915.241601,555.039366 915.978542,555.147446 916.202564,554.012380 921.640615,554.912306 921.793887,553.955440 930.651986,555.374658"/>
    <poly id="11018815#2" type="historic" color="128,255,128" fill="1" layer="-1.00" shape="930.651986,555.374658 937.055732,556.370599 936.507548,560.331216 935.427446,560.235699 935.260434,561.326049 936.347686,561.421536 935.496918,566.539787 934.559446,566.354718 934.313313,567.334214 935.336728,567.552277 934.442378,574.205112 933.745129,575.030845 934.376922,575.639718 935.408215,574.334467 947.492225,576.029207 948.756511,577.413736 949.419277,576.888359 948.362627,575.569668 949.217184,569.650846 951.077309,569.898745 951.300730,568.619137 949.433641,568.415744 950.107212,563.665162 951.967293,563.901943 952.133325,562.578102 950.287685,562.374617 951.065654,556.945347 956.938922,557.621100 956.842564,558.511013 957.302705,559.109493 959.971275,559.465179 960.201158,559.719944 961.281354,559.837704 961.631011,559.669449 964.099141,559.970387 964.640544,559.489998 964.765784,558.666676 968.214100,559.108035 968.595682,559.729084 969.108484,559.248816 973.014459,559.699371 974.189938,558.671491 974.748528,555.478035 974.125143,553.468148 977.489424,550.930018 978.872876,551.746992 979.369650,550.855395 977.979000,550.027332 978.482584,545.655511 980.089606,545.226235 979.864255,544.348794 978.400190,544.766350 975.616635,540.875348 976.571211,540.026301 976.949178,536.388851 976.272238,535.246458 954.266320,532.537137 954.581371,529.244634 956.412769,529.459299 956.600536,528.202080 954.797831,528.009532 955.357477,523.370620 957.146070,523.607703 957.319021,522.228238 955.559169,522.024391 955.828431,519.743895 956.236438,516.451001 957.302388,516.579939 958.186071,515.875732 958.336963,514.351815 957.553044,513.276589 958.222547,512.651115 957.654773,511.964138 956.542843,512.802732 943.578133,510.855948 942.634983,509.325522 941.830048,510.051638 942.592052,511.015767 942.242784,512.974154 937.313956,512.450100 937.452276,511.337633 936.651118,511.263178 936.541353,512.364405 936.240901,512.332315 936.227257,512.488036 935.376047,512.413792 935.308247,513.292466 936.180813,513.344383 935.717210,517.015553 934.823052,516.930371 934.748196,517.831312 935.585197,517.927854 935.565340,518.305978 935.880045,518.326890 935.237424,523.633284 934.879818,523.612553 934.790145,524.391250 930.225896,523.843429 930.337019,523.064641 929.657464,523.000793 929.539097,523.757373 925.103364,523.164539 924.433632,523.734424 924.077666,527.494092 921.645223,527.181904 921.368967,529.495787 921.195322,530.708473 921.097516,531.253708 918.851075,530.962974 918.637155,532.798485 907.197826,531.401298 907.454597,529.554487 903.713143,529.125523 903.285455,532.829902 905.152700,533.066635 903.685045,544.491877 901.889541,544.310435 901.425636,547.903779 904.551688,548.224149 903.173292,548.608007 903.000309,549.976355 903.753428,550.529118 904.933729,550.646444 904.858315,551.413962 903.592070,551.263642 903.481750,552.231447 904.719252,552.348531 904.230827,556.909317 902.757181,556.748754 902.737373,557.137997 904.118114,557.310071 904.118864,557.487969 904.190930,557.621091 904.291502,557.731855 904.477736,557.808901 904.382560,558.976780 905.033416,559.018509 905.128592,557.850629 909.321004,558.399998 909.161569,559.590386 909.905472,559.653960 910.093976,558.574637 912.247173,558.799048 914.736710,559.088754 914.998520,556.741574 915.241601,555.039366 915.978542,555.147446 916.202564,554.012380 921.640615,554.912306 921.793887,553.955440 930.651986,555.374658"/>
    <poly id="11018815#3" type="tourism" color="207,245,201" fill="1" layer="-2.00" shape="930.651986,555.374658 937.055732,556.370599 936.507548,560.331216 935.427446,560.235699 935.260434,561.326049 936.347686,561.421536 935.496918,566.539787 934.559446,566.354718 934.313313,567.334214 935.336728,567.552277 934.442378,574.205112 933.745129,575.030845 934.376922,575.639718 935.408215,574.334467 947.492225,576.029207 948.756511,577.413736 949.419277,576.888359 948.362627,575.569668 949.217184,569.650846 951.077309,569.898745 951.300730,568.619137 949.433641,568.415744 950.107212,563.665162 951.967293,563.901943 952.133325,562.578102 950.287685,562.374617 951.065654,556.945347 956.938922,557.621100 956.842564,558.511013 957.302705,559.109493 959.971275,559.465179 960.201158,559.719944 961.281354,559.837704 961.631011,559.669449 964.099141,559.970387 964.640544,559.489998 964.765784,558.666676 968.214100,559.108035 968.595682,559.729084 969.108484,559.248816 973.014459,559.699371 974.189938,558.671491 974.748528,555.478035 974.125143,553.468148 977.489424,550.930018 978.872876,551.746992 979.369650,550.855395 977.979000,550.027332 978.482584,545.655511 980.089606,545.226235 979.864255,544.348794 978.400190,544.766350 975.616635,540.875348 976.571211,540.026301 976.949178,536.388851 976.272238,535.246458 954.266320,532.537137 954.581371,529.244634 956.412769,529.459299 956.600536,528.202080 954.797831,528.009532 955.357477,523.370620 957.146070,523.607703 957.319021,522.228238 955.559169,522.024391 955.828431,519.743895 956.236438,516.451001 957.302388,516.579939 958.186071,515.875732 958.336963,514.351815 957.553044,513.276589 958.222547,512.651115 957.654773,511.964138 956.542843,512.802732 943.578133,510.855948 942.634983,509.325522 941.830048,510.051638 942.592052,511.015767 942.242784,512.974154 937.313956,512.450100 937.452276,511.337633 936.651118,511.263178 936.541353,512.364405 936.240901,512.332315 936.227257,512.488036 935.376047,512.413792 935.308247,513.292466 936.180813,513.344383 935.717210,517.015553 934.823052,516.930371 934.748196,517.831312 935.585197,517.927854 935.565340,518.305978 935.880045,518.326890 935.237424,523.633284 934.879818,523.612553 934.790145,524.391250 930.225896,523.843429 930.337019,523.064641 929.657464,523.000793 929.539097,523.757373 925.103364,523.164539 924.433632,523.734424 924.077666,527.494092 921.645223,527.181904 921.368967,529.495787 921.195322,530.708473 921.097516,531.253708 918.851075,530.962974 918.637155,532.798485 907.197826,531.401298 907.454597,529.554487 903.713143,529.125523 903.285455,532.829902 905.152700,533.066635 903.685045,544.491877 901.889541,544.310435 901.425636,547.903779 904.551688,548.224149 903.173292,548.608007 903.000309,549.976355 903.753428,550.529118 904.933729,550.646444 904.858315,551.413962 903.592070,551.263642 903.481750,552.231447 904.719252,552.348531 904.230827,556.909317 902.757181,556.748754 902.737373,557.137997 904.118114,557.310071 904.118864,557.487969 904.190930,557.621091 904.291502,557.731855 904.477736,557.808901 904.382560,558.976780 905.033416,559.018509 905.128592,557.850629 909.321004,558.399998 909.161569,559.590386 909.905472,559.653960 910.093976,558.574637 912.247173,558.799048 914.736710,559.088754 914.998520,556.741574 915.241601,555.039366 915.978542,555.147446 916.202564,554.012380 921.640615,554.912306 921.793887,553.955440 930.651986,555.374658"/>
    <poly id="1115176548" type="building" color="255,230,230" fill="1" layer="-1.00" shape="710.147946,554.907802 707.604831,560.511406 719.920628,566.240785 722.634837,560.514151 719.182243,559.072274 710.147946,554.907802"/>
    <poly id="11526375" type="building" color="255,230,230" fill="1" layer="-1.00" shape="632.215553,599.904518 631.750819,598.238677 630.920050,596.251952 629.983547,594.621483 628.352814,592.838316 626.278865,591.079281 623.748207,589.533456 621.527142,588.486657 623.797899,577.736150 613.283830,575.334943 610.840824,585.930527 609.367414,585.825639 608.144925,585.875341 606.679759,586.026152 605.000801,586.344659 603.358213,586.807557 601.459645,587.605116 600.139813,588.300129 598.942105,589.128047 597.766086,590.011467 596.691406,591.183543 595.609815,592.411243 594.615928,594.083322 594.112168,594.997223 593.644683,596.033276 593.234588,597.113559 592.932556,598.382399 592.700978,599.406324 592.578079,600.763349 592.599564,602.442202 592.727729,603.987173 592.976020,605.198065 593.288757,606.430918 593.694255,607.618900 588.715343,612.087744 587.864953,612.202572 586.305272,611.986870 586.158213,612.710225 588.039982,613.002379 594.161009,619.780919 595.784134,619.785093 600.585006,615.483799 603.766605,617.093542 606.430446,618.016133 609.236718,618.804689 611.540579,619.150642 613.600480,619.297499 615.938998,619.387572 617.783159,619.246263 620.160640,625.106851 621.650144,625.634190 629.616704,622.564705 630.096595,621.083849 627.718933,615.178782 629.412399,613.236868 630.564213,611.708666 631.443467,609.981489 632.234308,607.643153 632.602437,605.106484 632.736796,603.082281 632.556264,600.992709 632.215553,599.904518"/>
    <poly id="11526375#1" type="tourism" color="207,245,201" fill="1" layer="-2.00" shape="632.215553,599.904518 631.750819,598.238677 630.920050,596.251952 629.983547,594.621483 628.352814,592.838316 626.278865,591.079281 623.748207,589.533456 621.527142,588.486657 623.797899,577.736150 613.283830,575.334943 610.840824,585.930527 609.367414,585.825639 608.144925,585.875341 606.679759,586.026152 605.000801,586.344659 603.358213,586.807557 601.459645,587.605116 600.139813,588.300129 598.942105,589.128047 597.766086,590.011467 596.691406,591.183543 595.609815,592.411243 594.615928,594.083322 594.112168,594.997223 593.644683,596.033276 593.234588,597.113559 592.932556,598.382399 592.700978,599.406324 592.578079,600.763349 592.599564,602.442202 592.727729,603.987173 592.976020,605.198065 593.288757,606.430918 593.694255,607.618900 588.715343,612.087744 587.864953,612.202572 586.305272,611.986870 586.158213,612.710225 588.039982,613.002379 594.161009,619.780919 595.784134,619.785093 600.585006,615.483799 603.766605,617.093542 606.430446,618.016133 609.236718,618.804689 611.540579,619.150642 613.600480,619.297499 615.938998,619.387572 617.783159,619.246263 620.160640,625.106851 621.650144,625.634190 629.616704,622.564705 630.096595,621.083849 627.718933,615.178782 629.412399,613.236868 630.564213,611.708666 631.443467,609.981489 632.234308,607.643153 632.602437,605.106484 632.736796,603.082281 632.556264,600.992709 632.215553,599.904518"/>
    <poly id="11527028" type="building" color="255,230,230" fill="1" layer="-1.00" shape="133.676519,554.068388 138.646295,545.941056 138.845094,545.617741 131.037533,540.848475 110.907806,529.061455 108.502723,533.386077 107.771504,532.955637 82.133022,576.086568 83.301857,576.848656 71.882080,596.289900 113.966875,620.422810 113.964835,619.955827 114.929395,608.332413 115.162299,605.996437 115.836193,601.490358 116.617776,597.083878 117.553011,593.477285 118.475696,590.271026 114.009195,587.555299 133.676519,554.068388"/>