<?xml version="1.0" encoding="UTF-8"?>
<!-- generated on 2025-12-17 20:41:21.832100 by randomTrips.py v1_5_0+0000-3a3be608d2
  options: -n frankfurt_center.net.xml -r frankfurt_center.trips.xml -e 3600 -p 2
-->
<routes xmlns:xsi="http://www.w3.org/2001/XMLSchema-instance" xsi:noNamespaceSchemaLocation="http://sumo.dlr.de/xsd/routes_file.xsd">
    <trip id="0" depart="0.00" from="941417670#2" to="24527659#0"/>
    <trip id="1" depart="2.00" from="389399200" to="1274695659"/>
    <trip id="2" depart="4.00" from="266312306#0" to="1393936807"/>
    <trip id="3" depart="6.00" from="5070123#0" to="1413525007"/>
    <trip id="4" depart="8.00" from="184076535" to="266026707#1"/>
    <trip id="5" depart="10.00" from="-73025987" to="292598928"/>
    <trip id="6" depart="12.00" from="492264419#1" to="-24586359#1"/>
    <trip id="7" depart="14.00" from="4793116#1" to="288540012#3"/>
    <trip id="8" depart="16.00" from="-174824966" to="492264419#0"/>
    <trip id="9" depart="18.00" from="1413204666#0" to="138700618#1"/>
    <trip id="10" depart="20.00" from="-5069579#2" to="1382047150#0"/>
    <trip id="11" depart="22.00" from="1393537067#0" to="1211092717#1"/>
    <trip id="12" depart="24.00" from="-314926669#1" to="1329348899#2"/>
    <trip id="13" depart="26.00" from="292598929#2" to="72369035#1"/>
    <trip id="14" depart="28.00" from="5069738#2" to="495766634"/>
    <trip id="15" depart="30.00" from="1242306014#0" to="1271455974"/>
    <trip id="16" depart="32.00" from="1333675902#0" to="1022606036#1"/>
    <trip id="17" depart="34.00" from="-314926669#0" to="1392548847"/>
    <trip id="18" depart="36.00" from="1413438181" to="1021708452"/>
    <trip id="19" depart="38.00" from="504597517#0" to="1293506707"/>
    <trip id="20" depart="40.00" from="151790498#1" to="941417670#1"/>
    <trip id="21" depart="42.00" from="24527785" to="4856359"/>
    <trip id="22" depart="44.00" from="1393535139#0" to="1382047150#2"/>
    <trip id="23" depart="46.00" from="-103888711" to="266312298#1"/>
    <trip id="24" depart="48.00" from="1409444559" to="-1396818720#1"/>
    <trip id="25" depart="50.00" from="-1396818720#1" to="-191548220#2"/>
    <trip id="26" depart="52.00" from="1396156089#1" to="-504582668#0"/>
    <trip id="27" depart="54.00" from="-504582668#1" to="174693047#2"/>
    <trip id="28" depart="56.00" from="1413525006" to="174824967"/>
    <trip id="29" depart="58.00" from="43210383#1" to="24586342"/>
    <trip id="30" depart="60.00" from="-48098269" to="1333769531#1"/>
    <trip id="31" depart="62.00" from="1333771562#1" to="5069747#0"/>
    <trip id="32" depart="64.00" from="44145379" to="35146833#0"/>
    <trip id="33" depart="66.00" from="492264416" to="-504582668#0"/>
    <trip id="34" depart="68.00" from="1333675902#1" to="-1271450782"/>
    <trip id="35" depart="70.00" from="-43210383#0" to="503322104#1"/>
    <trip id="36" depart="72.00" from="370683167#0" to="1021708443#2"/>
    <trip id="37" depart="74.00" from="1080436296" to="62333280"/>
    <trip id="38" depart="76.00" from="914428626#1" to="1409437097"/>
    <trip id="39" depart="78.00" from="1382047150#0" to="1004017416"/>
    <trip id="40" depart="80.00" from="-1111058658" to="1413438181"/>
    <trip id="41" depart="82.00" from="1021708443#1" to="5069792"/>
    <trip id="42" depart="84.00" from="-43210383#1" to="1149993528#0"/>
    <trip id="43" depart="86.00" from="148754590" to="24527659#1"/>
    <trip id="44" depart="88.00" from="191548220#1" to="292598930"/>
    <trip id="45" depart="90.00" from="-1149011859#0" to="174693047#3"/>
    <trip id="46" depart="92.00" from="1382047149" to="472503795"/>
    <trip id="47" depart="94.00" from="-1411496279#0" to="20433203"/>
    <trip id="48" depart="96.00" from="-1203874088" to="72369035#0"/>
    <trip id="49" depart="98.00" from="-1056385000#1" to="1396827610"/>
    <trip id="50" depart="100.00" from="-292598929#1" to="296607982#1"/>
    <trip id="51" depart="102.00" from="31263304" to="-174824967"/>
    <trip id="52" depart="104.00" from="164630184#1" to="-1413551370"/>
    <trip id="53" depart="106.00" from="503322108" to="247500051#0"/>
    <trip id="54" depart="108.00" from="174693048" to="-1411496280"/>
    <trip id="55" depart="110.00" from="404737753#0" to="1393537067#0"/>
    <trip id="56" depart="112.00" from="5069738#2" to="1149011789"/>
    <trip id="57" depart="114.00" from="156298619" to="-241952842#3"/>
    <trip id="58" depart="116.00" from="5072860#0" to="-174824969"/>
    <trip id="59" depart="118.00" from="4724288" to="4886410"/>
    <trip id="60" depart="120.00" from="24527659#1" to="-24586359#1"/>
    <trip id="61" depart="122.00" from="4722335" to="-5073072"/>
    <trip id="62" depart="124.00" from="24535789" to="174698949"/>
    <trip id="63" depart="126.00" from="441319298#1" to="-49571339"/>
    <trip id="64" depart="128.00" from="4724288" to="1329348899#2"/>
    <trip id="65" depart="130.00" from="164630184#1" to="941417670#2"/>
    <trip id="66" depart="132.00" from="-292598929#0" to="43210309#1"/>
    <trip id="67" depart="134.00" from="-1056385000#2" to="-975406001#1"/>
    <trip id="68" depart="136.00" from="-4937455#2" to="49499524#0"/>
    <trip id="69" depart="138.00" from="975395206#2" to="4793112"/>
    <trip id="70" depart="140.00" from="222176224" to="-1092461470"/>
    <trip id="71" depart="142.00" from="-5069571#1" to="24535786#0"/>
    <trip id="72" depart="144.00" from="87348037#2" to="-1279853327#0"/>
    <trip id="73" depart="146.00" from="-241952842#1" to="52289448"/>
    <trip id="74" depart="148.00" from="1333771562#0" to="1382284179"/>
    <trip id="75" depart="150.00" from="-1396156315" to="370683167#1"/>
    <trip id="76" depart="152.00" from="-1004017416" to="-1413525005"/>
    <trip id="77" depart="154.00" from="1149011828#2" to="-4722379#2"/>
    <trip id="78" depart="156.00" from="72369035#0" to="-1411480703"/>
    <trip id="79" depart="158.00" from="492264417#1" to="5069790"/>
    <trip id="80" depart="160.00" from="1382284178" to="151790498#1"/>
    <trip id="81" depart="162.00" from="1331972051#2" to="1363141589"/>
    <trip id="82" depart="164.00" from="1413204666#0" to="292598928"/>
    <trip id="83" depart="166.00" from="5069757#0" to="-1363141589"/>
    <trip id="84" depart="168.00" from="43204508" to="1334322147"/>
    <trip id="85" depart="170.00" from="4937455#0" to="5070123#1"/>
    <trip id="86" depart="172.00" from="-52099137" to="5069757#0"/>
    <trip id="87" depart="174.00" from="52289448" to="301592611#1"/>
    <trip id="88" depart="176.00" from="-1333675901" to="975406001#0"/>
    <trip id="89" depart="178.00" from="52928641#1" to="-1363141589"/>
    <trip id="90" depart="180.00" from="1420731271" to="-49499523#1"/>
    <trip id="91" depart="182.00" from="156298619" to="265714775#1"/>
    <trip id="92" depart="184.00" from="31263304" to="-1411481100"/>
    <trip id="93" depart="186.00" from="174824968" to="-30785047"/>
    <trip id="94" depart="188.00" from="-4850457" to="588309439"/>
    <trip id="95" depart="190.00" from="292598929#1" to="265714783"/>
    <trip id="96" depart="192.00" from="174643304" to="265714775#1"/>
    <trip id="97" depart="194.00" from="-73025987" to="266026706#0"/>
    <trip id="98" depart="196.00" from="292598929#2" to="5069738#1"/>
    <trip id="99" depart="198.00" from="1394523623" to="4834451"/>
    <trip id="100" depart="200.00" from="1149993528#1" to="1413774330"/>
    <trip id="101" depart="202.00" from="4943633#0" to="1149993528#0"/>
    <trip id="102" depart="204.00" from="-5069571#0" to="5069757#3"/>
    <trip id="103" depart="206.00" from="1394519822" to="-4850450"/>
    <trip id="104" depart="208.00" from="-4722379#4" to="588309438"/>
    <trip id="105" depart="210.00" from="553918577#2" to="167633348#1"/>
    <trip id="106" depart="212.00" from="1211092717#1" to="373852729"/>
    <trip id="107" depart="214.00" from="24527660#1" to="-1333681393#0"/>
    <trip id="108" depart="216.00" from="692664116#2" to="-770565577"/>
    <trip id="109" depart="218.00" from="389399200" to="-1393526705"/>
    <trip id="110" depart="220.00" from="503322109#1" to="-49499523#0"/>
    <trip id="111" depart="222.00" from="1333675902#0" to="1396833055"/>
    <trip id="112" depart="224.00" from="-1056385000#0" to="4793112"/>
    <trip id="113" depart="226.00" from="24527659#0" to="1411556658"/>
    <trip id="114" depart="228.00" from="1411556658" to="39460498#2"/>
    <trip id="115" depart="230.00" from="-1411496279#0" to="-4722379#0"/>
    <trip id="116" depart="232.00" from="-174693047#2" to="472503797"/>
    <trip id="117" depart="234.00" from="266312298#0" to="-24586359#0"/>
    <trip id="118" depart="236.00" from="1363141589" to="-284213276#1"/>
    <trip id="119" depart="238.00" from="1329348899#1" to="4928480"/>
    <trip id="120" depart="240.00" from="692792970" to="164630182"/>
    <trip id="121" depart="242.00" from="1380824715" to="1376110758"/>
    <trip id="122" depart="244.00" from="1396153771" to="1293506707"/>
    <trip id="123" depart="246.00" from="24527660#2" to="1394520286"/>
    <trip id="124" depart="248.00" from="5069738#0" to="1274695659"/>
    <trip id="125" depart="250.00" from="-4722379#1" to="292598929#1"/>
    <trip id="126" depart="252.00" from="5069747#1" to="1319128632"/>
    <trip id="127" depart="254.00" from="5069771#1" to="1413204666#0"/>
    <trip id="128" depart="256.00" from="1411496279#2" to="1420731271"/>
    <trip id="129" depart="258.00" from="1380281870#0" to="51344536"/>
    <trip id="130" depart="260.00" from="-314926669#1" to="-504582668#1"/>
    <trip id="131" depart="262.00" from="1413525007" to="5068854#1"/>
    <trip id="132" depart="264.00" from="1333675903#0" to="301592611#0"/>
    <trip id="133" depart="266.00" from="1413774332" to="1413772789"/>
    <trip id="134" depart="268.00" from="-492264415" to="288540012#3"/>
    <trip id="135" depart="270.00" from="1411496279#1" to="-1036351440"/>
    <trip id="136" depart="272.00" from="50414549" to="1380281870#1"/>
    <trip id="137" depart="274.00" from="1394519822" to="1394510973"/>
    <trip id="138" depart="276.00" from="1149011789" to="4836815"/>
    <trip id="139" depart="278.00" from="-265714775#0" to="371173887"/>
    <trip id="140" depart="280.00" from="-1411480705" to="441319298#0"/>
    <trip id="141" depart="282.00" from="1271455974" to="1420731271"/>
    <trip id="142" depart="284.00" from="1025900592" to="975406001#1"/>
    <trip id="143" depart="286.00" from="156298619" to="1413203908"/>
    <trip id="144" depart="288.00" from="4722336" to="48098269"/>
    <trip id="145" depart="290.00" from="4567554" to="-5072885"/>
    <trip id="146" depart="292.00" from="125863228" to="26823692"/>
    <trip id="147" depart="294.00" from="1411529810#1" to="1246071073"/>
    <trip id="148" depart="296.00" from="1392547076" to="27557786"/>
    <trip id="149" depart="298.00" from="266334240#1" to="-1211092717#1"/>
    <trip id="150" depart="300.00" from="472503796#0" to="4722379#3"/>
    <trip id="151" depart="302.00" from="-5069579#0" to="5069757#0"/>
    <trip id="152" depart="304.00" from="1149011789" to="5069790"/>
    <trip id="153" depart="306.00" from="314926667" to="34583180"/>
    <trip id="154" depart="308.00" from="-52288460" to="772058703"/>
    <trip id="155" depart="310.00" from="-301592611#0" to="-5736030"/>
    <trip id="156" depart="312.00" from="-1411480704" to="-4722379#3"/>
    <trip id="157" depart="314.00" from="-292598930" to="247843212"/>
    <trip id="158" depart="316.00" from="492264416" to="-24586359#0"/>
    <trip id="159" depart="318.00" from="-1209355639#0" to="138700618#2"/>
    <trip id="160" depart="320.00" from="1211092717#1" to="1022606036#0"/>
    <trip id="161" depart="322.00" from="-103888711" to="1394510973"/>
    <trip id="162" depart="324.00" from="-174824966" to="26784427"/>
    <trip id="163" depart="326.00" from="-1056385000#1" to="1246071072"/>
    <trip id="164" depart="328.00" from="5068854#0" to="1409444560"/>
    <trip id="165" depart="330.00" from="1413204666#0" to="-35146833#0"/>
    <trip id="166" depart="332.00" from="1319128632" to="1392548148"/>
    <trip id="167" depart="334.00" from="49501589" to="1346990768#0"/>
    <trip id="168" depart="336.00" from="247843232" to="1411496279#1"/>
    <trip id="169" depart="338.00" from="-1203874088" to="-4722379#2"/>
    <trip id="170" depart="340.00" from="5073138" to="49571339"/>
    <trip id="171" depart="342.00" from="184076536" to="5069747#1"/>
    <trip id="172" depart="344.00" from="1396161901" to="1394518894"/>
    <trip id="173" depart="346.00" from="504582668#0" to="941417670#2"/>
    <trip id="174" depart="348.00" from="1080436296" to="1382276240"/>
    <trip id="175" depart="350.00" from="-1411496279#2" to="266334237#1"/>
    <trip id="176" depart="352.00" from="164182181" to="24527662#1"/>
    <trip id="177" depart="354.00" from="49499527#0" to="174600936#1"/>
    <trip id="178" depart="356.00" from="-1380803696" to="4943633#1"/>
    <trip id="179" depart="358.00" from="-1396154532" to="-292598929#2"/>
    <trip id="180" depart="360.00" from="-191548220#2" to="975406001#0"/>
    <trip id="181" depart="362.00" from="-5072970" to="76180868#0"/>
    <trip id="182" depart="364.00" from="1149993528#2" to="1413772790#0"/>
    <trip id="183" depart="366.00" from="553918577#1" to="1346990768#1"/>
    <trip id="184" depart="368.00" from="504582668#1" to="1271450782"/>
    <trip id="185" depart="370.00" from="1413525006" to="-5069571#1"/>
    <trip id="186" depart="372.00" from="1411480705" to="5069757#0"/>
    <trip id="187" depart="374.00" from="125863228" to="1413525007"/>
    <trip id="188" depart="376.00" from="-35146833#1" to="772058703"/>
    <trip id="189" depart="378.00" from="1380281870#1" to="4943633#1"/>
    <trip id="190" depart="380.00" from="1392541929" to="492264417#0"/>
    <trip id="191" depart="382.00" from="-975395206#1" to="-24586359#0"/>
    <trip id="192" depart="384.00" from="-174824966" to="1396827610"/>
    <trip id="193" depart="386.00" from="191548220#1" to="-314926669#0"/>
    <trip id="194" depart="388.00" from="404737753#0" to="1198775083"/>
    <trip id="195" depart="390.00" from="24350199#1" to="503322110"/>
    <trip id="196" depart="392.00" from="492264419#1" to="975406001#1"/>
    <trip id="197" depart="394.00" from="1394511261" to="138700618#2"/>
    <trip id="198" depart="396.00" from="241952842#3" to="1149993528#2"/>
    <trip id="199" depart="398.00" from="1329348899#1" to="504582669"/>
    <trip id="200" depart="400.00" from="1021708452" to="-26823692"/>
    <trip id="201" depart="402.00" from="1004025941" to="1327939623"/>
    <trip id="202" depart="404.00" from="1382284178" to="965319934#1"/>
    <trip id="203" depart="406.00" from="1333675903#2" to="-4937455#0"/>
    <trip id="204" depart="408.00" from="1017153773" to="975406000#0"/>
    <trip id="205" depart="410.00" from="-292598929#1" to="72576088"/>
    <trip id="206" depart="412.00" from="-1396833055" to="174274186"/>
    <trip id="207" depart="414.00" from="24527662#1" to="1393934588"/>
    <trip id="208" depart="416.00" from="174274186" to="1396162832"/>
    <trip id="209" depart="418.00" from="-1396154532" to="1394511261"/>
    <trip id="210" depart="420.00" from="1410983661" to="502484458#0"/>
    <trip id="211" depart="422.00" from="1413203908" to="1004025939"/>
    <trip id="212" depart="424.00" from="-1393537067#1" to="1017153773"/>
    <trip id="213" depart="426.00" from="1396837754" to="4943633#1"/>
    <trip id="214" depart="428.00" from="-4856361" to="1331972051#2"/>
    <trip id="215" depart="430.00" from="553918577#0" to="4722335"/>
    <trip id="216" depart="432.00" from="26655910" to="1392541929"/>
    <trip id="217" depart="434.00" from="-241952842#0" to="296318525"/>
    <trip id="218" depart="436.00" from="174600936#2" to="1393537551"/>
    <trip id="219" depart="438.00" from="-4567554" to="1396818720#1"/>
    <trip id="220" depart="440.00" from="-492264416" to="1382047147"/>
    <trip id="221" depart="442.00" from="1409482137" to="24350199#1"/>
    <trip id="222" depart="444.00" from="24527659#1" to="241952842#2"/>
    <trip id="223" depart="446.00" from="-301592611#1" to="495766636#1"/>
    <trip id="224" depart="448.00" from="1333675903#1" to="-1056385000#1"/>
    <trip id="225" depart="450.00" from="5070123#1" to="-1411480704"/>
    <trip id="226" depart="452.00" from="1393535139#1" to="-296607982#0"/>
    <trip id="227" depart="454.00" from="-266026705#1" to="5069735"/>
    <trip id="228" depart="456.00" from="-1413530846" to="1413774331"/>
    <trip id="229" depart="458.00" from="-4556912" to="174693047#0"/>
    <trip id="230" depart="460.00" from="-1149011859#0" to="1411496279#0"/>
    <trip id="231" depart="462.00" from="1392543872" to="151790498#0"/>
    <trip id="232" depart="464.00" from="-5069579#1" to="-492264418"/>
    <trip id="233" depart="466.00" from="288540012#2" to="35146833#1"/>
    <trip id="234" depart="468.00" from="1411480705" to="266026707#1"/>
    <trip id="235" depart="470.00" from="-1413528061" to="-26823383#0"/>
    <trip id="236" depart="472.00" from="1029849724" to="1413528060"/>
    <trip id="237" depart="474.00" from="30194665#0" to="-4722379#4"/>
    <trip id="238" depart="476.00" from="164630185" to="-492264418"/>
    <trip id="239" depart="478.00" from="174698948" to="495766639#1"/>
    <trip id="240" depart="480.00" from="48098965" to="-1413532119"/>
    <trip id="241" depart="482.00" from="1410974680" to="5069571#0"/>
    <trip id="242" depart="484.00" from="-73025987" to="5069579#2"/>
    <trip id="243" depart="486.00" from="-51706790" to="-1411088258"/>
    <trip id="244" depart="488.00" from="-492264415" to="247500048#1"/>
    <trip id="245" depart="490.00" from="1029849723" to="-503322109#1"/>
    <trip id="246" depart="492.00" from="1411480704" to="-4793116#1"/>
    <trip id="247" depart="494.00" from="5069771#0" to="-292598929#1"/>
    <trip id="248" depart="496.00" from="24527662#1" to="-5069579#0"/>
    <trip id="249" depart="498.00" from="30194665#0" to="1396818720#1"/>
    <trip id="250" depart="500.00" from="174693047#2" to="164630185"/>
    <trip id="251" depart="502.00" from="-72576088" to="1394520286"/>
    <trip id="252" depart="504.00" from="5072873#0" to="1211092744"/>
    <trip id="253" depart="506.00" from="265714775#1" to="-692664113"/>
    <trip id="254" depart="508.00" from="4943633#0" to="262759995"/>
    <trip id="255" depart="510.00" from="266334240#1" to="1411496279#2"/>
    <trip id="256" depart="512.00" from="5069579#1" to="-975395206#2"/>
    <trip id="257" depart="514.00" from="1382276240" to="5072970"/>
    <trip id="258" depart="516.00" from="1411496279#1" to="34568605"/>
    <trip id="259" depart="518.00" from="5072860#0" to="4856361"/>
    <trip id="260" depart="520.00" from="-1393537551" to="1246071073"/>
    <trip id="261" depart="522.00" from="49499527#1" to="1413772791"/>
    <trip id="262" depart="524.00" from="26656404#1" to="1329348899#0"/>
    <trip id="263" depart="526.00" from="4850456" to="-5073072"/>
    <trip id="264" depart="528.00" from="209078965#1" to="375502623#1"/>
    <trip id="265" depart="530.00" from="-5072873#1" to="-1411088258"/>
    <trip id="266" depart="532.00" from="26823383#1" to="-296607982#1"/>
    <trip id="267" depart="534.00" from="-1319028992" to="266026705#1"/>
    <trip id="268" depart="536.00" from="1209355639#0" to="13020804#0"/>
    <trip id="269" depart="538.00" from="1394520286" to="492264418"/>
    <trip id="270" depart="540.00" from="43210383#0" to="87348037#2"/>
    <trip id="271" depart="542.00" from="-1396824767" to="177592548#1"/>
    <trip id="272" depart="544.00" from="1411496279#0" to="492264416"/>
    <trip id="273" depart="546.00" from="24527721" to="1376110758"/>
    <trip id="274" depart="548.00" from="1410983661" to="1149993528#3"/>
    <trip id="275" depart="550.00" from="30785047" to="-503322111"/>
    <trip id="276" depart="552.00" from="174512175" to="1051941946"/>
    <trip id="277" depart="554.00" from="174824968" to="5068854#0"/>
    <trip id="278" depart="556.00" from="495766634" to="24527718"/>
    <trip id="279" depart="558.00" from="1409437098" to="-1271450782"/>
    <trip id="280" depart="560.00" from="1246071074#4" to="301592611#1"/>
    <trip id="281" depart="562.00" from="-1209355639#1" to="1021708443#1"/>
    <trip id="282" depart="564.00" from="-53567948" to="174824967"/>
    <trip id="283" depart="566.00" from="1333769531#0" to="1279853327#0"/>
    <trip id="284" depart="568.00" from="26823383#1" to="-5069579#0"/>
    <trip id="285" depart="570.00" from="-174693047#2" to="404737753#1"/>
    <trip id="286" depart="572.00" from="503322104#0" to="174643304"/>
    <trip id="287" depart="574.00" from="-167633355" to="-138700618#1"/>
    <trip id="288" depart="576.00" from="247500048#1" to="1275972416"/>
    <trip id="289" depart="578.00" from="1392543553" to="48098965"/>
    <trip id="290" depart="580.00" from="-492264418" to="1396154532"/>
    <trip id="291" depart="582.00" from="472503796#2" to="-26823383#0"/>
    <trip id="292" depart="584.00" from="-4722379#0" to="1413203908"/>
    <trip id="293" depart="586.00" from="-5069571#0" to="389399200"/>
    <trip id="294" depart="588.00" from="4722379#0" to="266026707#1"/>
    <trip id="295" depart="590.00" from="-503322111" to="-975395206#1"/>
    <trip id="296" depart="592.00" from="265714783" to="1382284178"/>
    <trip id="297" depart="594.00" from="-1396156166#1" to="1319028994"/>
    <trip id="298" depart="596.00" from="1363141590" to="-49515976"/>
    <trip id="299" depart="598.00" from="4567554" to="1319028994"/>
    <trip id="300" depart="600.00" from="1409444559" to="24527659#1"/>
    <trip id="301" depart="602.00" from="-1394510973" to="-375502623#0"/>
    <trip id="302" depart="604.00" from="5070123#0" to="-265714775#0"/>
    <trip id="303" depart="606.00" from="1396827610" to="266312298#0"/>
    <trip id="304" depart="608.00" from="292117862" to="5073086"/>
    <trip id="305" depart="610.00" from="-4556912" to="1409437096"/>
    <trip id="306" depart="612.00" from="-503322109#1" to="1392543872"/>
    <trip id="307" depart="614.00" from="1394519822" to="1333675901"/>
    <trip id="308" depart="616.00" from="164630182" to="902539963"/>
    <trip id="309" depart="618.00" from="-1004017416" to="1331972051#2"/>
    <trip id="310" depart="620.00" from="-4722379#2" to="472503796#1"/>
    <trip id="311" depart="622.00" from="1382047147" to="1411481100"/>
    <trip id="312" depart="624.00" from="1021708447#0" to="241952841"/>
    <trip id="313" depart="626.00" from="1333771562#2" to="-1411481100"/>
    <trip id="314" depart="628.00" from="52928641#1" to="-504597517#0"/>
    <trip id="315" depart="630.00" from="-1111058658" to="49499523#0"/>
    <trip id="316" depart="632.00" from="1411480706" to="42759519"/>
    <trip id="317" depart="634.00" from="167633348#2" to="495766636#1"/>
    <trip id="318" depart="636.00" from="-24586359#0" to="-1411496279#0"/>
    <trip id="319" depart="638.00" from="339610125" to="164630183#1"/>
    <trip id="320" depart="640.00" from="5070123#1" to="-4722379#4"/>
    <trip id="321" depart="642.00" from="164630184#1" to="5073138"/>
    <trip id="322" depart="644.00" from="176131251" to="-43210383#0"/>
    <trip id="323" depart="646.00" from="1056385000#2" to="148754586"/>
    <trip id="324" depart="648.00" from="72369035#1" to="292598929#0"/>
    <trip id="325" depart="650.00" from="-5070123#2" to="1413551370"/>
    <trip id="326" depart="652.00" from="266334240#0" to="-975406001#0"/>
    <trip id="327" depart="654.00" from="-265714783" to="1396152575#1"/>
    <trip id="328" depart="656.00" from="1242306014#1" to="1396154532"/>
    <trip id="329" depart="658.00" from="24350199#0" to="1279853327#1"/>
    <trip id="330" depart="660.00" from="1413551370" to="174643304"/>
    <trip id="331" depart="662.00" from="-504582669" to="-1271450782"/>
    <trip id="332" depart="664.00" from="26659437" to="-191548220#2"/>
    <trip id="333" depart="666.00" from="4567554" to="-5069780"/>
    <trip id="334" depart="668.00" from="-1411496279#0" to="1392541944"/>
    <trip id="335" depart="670.00" from="-653944768" to="-296607982#1"/>
    <trip id="336" depart="672.00" from="1411496280" to="30194665#1"/>
    <trip id="337" depart="674.00" from="1021708447#0" to="902539962"/>
    <trip id="338" depart="676.00" from="52099137" to="296318526"/>
    <trip id="339" depart="678.00" from="174600936#2" to="1246071074#4"/>
    <trip id="340" depart="680.00" from="1033062410#0" to="1396152575#0"/>
    <trip id="341" depart="682.00" from="371155799" to="5070123#1"/>
    <trip id="342" depart="684.00" from="5068854#0" to="164630183#1"/>
    <trip id="343" depart="686.00" from="-35146834#1" to="5072860#0"/>
    <trip id="344" depart="688.00" from="164630183#0" to="1393938588"/>
    <trip id="345" depart="690.00" from="5069793#2" to="975395206#1"/>
    <trip id="346" depart="692.00" from="370683167#1" to="-35146834#0"/>
    <trip id="347" depart="694.00" from="-34583157" to="1394523623"/>
    <trip id="348" depart="696.00" from="1293506707" to="125863228"/>
    <trip id="349" depart="698.00" from="1411556658" to="184076536"/>
    <trip id="350" depart="700.00" from="1242306014#0" to="1271433850"/>
    <trip id="351" depart="702.00" from="1319128632" to="262759995"/>
    <trip id="352" depart="704.00" from="266312298#1" to="262759995"/>
    <trip id="353" depart="706.00" from="1053008664#2" to="52099138#0"/>
    <trip id="354" depart="708.00" from="1413774332" to="-1149011859#0"/>
    <trip id="355" depart="710.00" from="1393529378" to="174693047#3"/>
    <trip id="356" depart="712.00" from="-653944768" to="1363141589"/>
    <trip id="357" depart="714.00" from="5073085" to="292598928"/>
    <trip id="358" depart="716.00" from="-1333675901" to="-49499527#0"/>
    <trip id="359" depart="718.00" from="1392548847" to="1396162832"/>
    <trip id="360" depart="720.00" from="301592611#1" to="-1413532119"/>
    <trip id="361" depart="722.00" from="1149011859#0" to="-1411496281"/>
    <trip id="362" depart="724.00" from="30785047" to="5069757#3"/>
    <trip id="363" depart="726.00" from="1393526705" to="292598929#2"/>
    <trip id="364" depart="728.00" from="-1056385000#0" to="1396152575#1"/>
    <trip id="365" depart="730.00" from="26656574" to="-191548220#0"/>
    <trip id="366" depart="732.00" from="472503797" to="-1363141589"/>
    <trip id="367" depart="734.00" from="1394510666#1" to="1396833055"/>
    <trip id="368" depart="736.00" from="4937457#0" to="-292598929#2"/>
    <trip id="369" depart="738.00" from="-35146833#1" to="-1211092717#1"/>
    <trip id="370" depart="740.00" from="26656404#0" to="26784427"/>
    <trip id="371" depart="742.00" from="1051941947#1" to="5072860#1"/>
    <trip id="372" depart="744.00" from="4722336" to="26823383#1"/>
    <trip id="373" depart="746.00" from="241952842#3" to="-1111058658"/>
    <trip id="374" depart="748.00" from="51344536" to="1396152575#0"/>
    <trip id="375" depart="750.00" from="-24586359#0" to="5069790"/>
    <trip id="376" depart="752.00" from="5069738#2" to="151790498#0"/>
    <trip id="377" depart="754.00" from="1080510584" to="902539962"/>
    <trip id="378" depart="756.00" from="-1413524235" to="51344536"/>
    <trip id="379" depart="758.00" from="5069571#1" to="24527660#0"/>
    <trip id="380" depart="760.00" from="772058703" to="24350199#1"/>
    <trip id="381" depart="762.00" from="-1413528061" to="24527721"/>
    <trip id="382" depart="764.00" from="-191548220#0" to="1410974680"/>
    <trip id="383" depart="766.00" from="266312298#1" to="1413618434"/>
    <trip id="384" depart="768.00" from="247843212" to="1382047150#0"/>
    <trip id="385" depart="770.00" from="1346990768#1" to="26784427"/>
    <trip id="386" depart="772.00" from="1242306014#0" to="4850450"/>
    <trip id="387" depart="774.00" from="174693047#0" to="34583180"/>
    <trip id="388" depart="776.00" from="5069788" to="241952842#3"/>
    <trip id="389" depart="778.00" from="72369035#0" to="5069764"/>
    <trip id="390" depart="780.00" from="1319028996#0" to="975395206#2"/>
    <trip id="391" depart="782.00" from="553918577#0" to="43210309#0"/>
    <trip id="392" depart="784.00" from="1333681393#1" to="266312307"/>
    <trip id="393" depart="786.00" from="-5069571#1" to="653944768"/>
    <trip id="394" depart="788.00" from="-1333675901" to="-138700618#2"/>
    <trip id="395" depart="790.00" from="941417670#1" to="4943633#2"/>
    <trip id="396" depart="792.00" from="1092461470" to="1211092717#0"/>
    <trip id="397" depart="794.00" from="266026707#1" to="-1092461470"/>
    <trip id="398" depart="796.00" from="4943633#1" to="49499527#1"/>
    <trip id="399" depart="798.00" from="1413774332" to="1279853327#1"/>
    <trip id="400" depart="800.00" from="5068854#0" to="4937455#1"/>
    <trip id="401" depart="802.00" from="1396152575#1" to="24350199#1"/>
    <trip id="402" depart="804.00" from="1413772789" to="174693047#2"/>
    <trip id="403" depart="806.00" from="1396152575#1" to="1394520286"/>
    <trip id="404" depart="808.00" from="-1411088257" to="-504597517#0"/>
    <trip id="405" depart="810.00" from="-1333681393#0" to="-312969824"/>
    <trip id="406" depart="812.00" from="1411496280" to="4943633#1"/>
    <trip id="407" depart="814.00" from="151790498#1" to="504582668#0"/>
    <trip id="408" depart="816.00" from="43210309#1" to="4943633#2"/>
    <trip id="409" depart="818.00" from="5736030" to="-43210383#0"/>
    <trip id="410" depart="820.00" from="1393532625" to="174698948"/>
    <trip id="411" depart="822.00" from="1246071074#4" to="1382047148"/>
    <trip id="412" depart="824.00" from="5072873#0" to="-504582669"/>
    <trip id="413" depart="826.00" from="164630184#0" to="-1411088257"/>
    <trip id="414" depart="828.00" from="292117862" to="495766637"/>
    <trip id="415" depart="830.00" from="-5072873#1" to="-375502623#1"/>
    <trip id="416" depart="832.00" from="266026706#1" to="-1393537067#0"/>