<?xml version="1.0" encoding="UTF-8"?>

<!-- generated on 12/17/25 19:22:09 by Eclipse SUMO duarouter Version 1.5.0
<configuration xmlns:xsi="http://www.w3.org/2001/XMLSchema-instance" xsi:noNamespaceSchemaLocation="http://sumo.dlr.de/xsd/duarouterConfiguration.xsd">

    <input>
        <net-file value="garching.net.xml"/>
        <route-files value="garching.trips.xml"/>
    </input>

    <output>
        <output-file value="garching.rou.xml"/>
        <alternatives-output value="garching.rou.alt.xml"/>
    </output>

    <report>
        <ignore-errors value="true"/>
    </report>

</configuration>
-->

<routes xmlns:xsi="http://www.w3.org/2001/XMLSchema-instance" xsi:noNamespaceSchemaLocation="http://sumo.dlr.de/xsd/routes_file.xsd">
    <vehicle id="0" depart="0.00">
        <route edges="-1175575857#13 -1175575857#12 -1175575857#11 -1175575857#10 -1175575857#9 -1175575857#8 -1175575857#7 -1175575857#6 -1175575857#5 -1175575857#4 -1175575857#3 -1175575857#2 -1175575857#1 -1175575857#0 -1175575855 -9249132#2 -9249132#1 -9249132#0 47119528#0 47119528#1 47119528#2 330561872 109231588#2 109231588#3 109231588#4 109231588#5 109231588#6 1424747280 190096108 454395181 38357011#0 38357011#1 38357011#2 38357011#3 72493383#0 72493383#1 454395182 454395183 -38357009 -454395185#1 -454395185#0 -899616124 -454395186#1 -454395186#0 -454395187 -47119530#2 -47119530#1 -47119530#0 -1424747277#1 -1424747277#0 -454395189 -454395188"/>
    </vehicle>
    <vehicle id="1" depart="2.00">
        <route edges="-180084436 -414913286 -180084437 -194378123 180159415 260531023 75795729#1 190492480#0 190492480#1 190497903#1 283215108#0 283215108#1 286340141 290415786 290413967 155363779#0 155363779#1 -206912744 155363786 -122579758 -425955558 -122579760 -24592886 425955557 486842612 425955561 425955559 179262356#0 179262356#1 179262356#2"/>
    </vehicle>
    <vehicle id="2" depart="4.00">
        <route edges="124545633#0 -124545633#0 -1452928911 -1152728119 -10698478#1 -177496020 -10698481#0 -1152728643#1 -1152728643#0 -47120328#7 -47120328#6 -47120328#5 -47120328#4 -47120328#3 -47120328#2 -47120328#1 159713009#0 159713009#1 159713009#2 159713009#3 -162420523#2 -162420523#1 -162420523#0 -10697384#1 -10697384#0 -297108070#1 -297108070#0 -297108069#1 -297108069#0 -41495985#4 -41495985#3 -41495985#2 -41495985#1 -41495985#0 10526139#0 10526139#1 10526139#2 10526139#3 -176923478#10 -176923478#9 -176923478#8 -176923478#7 -176923478#6 -176923478#5 -176923478#4 -176923478#3 -176923478#2 -176923478#1 -176923478#0 -5106573#1 -5106573#0 -564132915 -564132916 -564132917#2 -564132917#1 -564132917#0 5106574 1418879829#0 1418879829#1 1418879829#2 1418879829#3 8133623#0 8133623#1 564134213#0 564134213#1 564134214 330561877#0 330561877#1 330561878 141351517 708923697 897589041 183251487 413254993 183697641#0 183697641#1 75795726 413254992 413254991 180069634#0 180069634#1 72493383#0 72493383#1 454395182 454395183 -38357009 -454395185#1 -454395185#0 -899616124 -454395186#1 -454395186#0 -454395187 -47119530#2 -47119530#1 -47119530#0 7652320#0 7652320#1 7652320#2 1289757423 178144974 891481309 -891481309"/>
    </vehicle>
    <vehicle id="3" depart="6.00">
        <route edges="42375926 42375925#0 42375925#1 42375925#2 42375925#3 42375925#4 42375925#5 42375925#6 -101078684#4 -101078684#3 -101078684#2 -101078684#1 27706010#0 27706010#1 27706010#2 32462425 32462424#0 32462424#1 32462424#2 20402494 441246635 -14391389#4 -14391389#3 -14391389#2 -14391389#1 -14391389#0 4046046#0 4046046#1 1108129216#0 1108129216#1 30615927#0 30615927#1 30615927#2 30615927#3 24592888 117991366#0 117991366#1 117991366#2 -46195412 -4046004#2 -4046004#1 -4046004#0 -297278129 -1424767161 -297278128 -17968031 499496030 -499497552 -499497735 -1424767157 -1424767158 -1424767159 -1424767160#1 -1424767160#0 -47120337 -1424767156#1 -1424767156#0 -392235603#3 -392235603#2 -392235603#1 -392235603#0 -41495984 -10698499#1 -10698499#0 10698499#0 10698499#1"/>
    </vehicle>
    <vehicle id="4" depart="8.00">
        <route edges="5107025#3 499497547#2 -322698948#4 -322698948#3 -322698948#2 -322698948#1 -322698948#0 -153708603#9 -153708603#8 -153708603#7 -153708603#6 -153708603#5 -153708603#4 -153708603#3 -153708603#2 -153708603#1 -153708603#0 5107072#0 5107072#1 5107072#2 -5107072#2 -5107072#1 -5107072#0 153708603#0 153708603#1 153708603#2 153708603#3 153708603#4 153708603#5 153708603#6"/>
    </vehicle>
    <vehicle id="5" depart="10.00">
        <route edges="10904979 75795720 414802236 414802238 190480171 1424747282 75795723 283215108#0 283215108#1"/>
    </vehicle>
    <vehicle id="6" depart="12.00">
        <route edges="4046004#0 4046004#1 4046004#2 -4046004#2 -4046004#1 -4046004#0 -297278129 -1424767161 -297278128 -17968031 499496030 -499497552 -499497735 -1424767157 -1424767158 -1424767159 -1424767160#1 -1424767160#0 -47120337 -1424767156#1 -1424767156#0 -173690962#1 -173690962#0 -705216271 -37697269#10 -37697269#9 -37697269#8 -37697269#7 -37697269#6 -37697269#5 -37697269#4 -37697269#3 -37697269#2 -37697269#1 -37697269#0 -707835606#3 -707835606#2 -707835606#1 -707835606#0 -297108070#1 -297108070#0 -297108069#1 -297108069#0 -41495985#4 -41495985#3 -41495985#2 -41495985#1 -41495985#0 -41495987#9 -41495987#8 -41495987#7 -41495987#6 -41495987#5 -41495987#4 -41495987#3 -41495987#2 -41495987#1 -41495987#0 -180084154#18 -180084154#17 -180084154#16 -180084154#15 -180084154#14 -180084154#13 -180084154#12 -180084154#11 -180084154#10 -180084154#9 -180084154#8 -180084154#7 -180084154#6 -180084154#5 -180084154#4"/>
    </vehicle>
    <vehicle id="7" depart="14.00">
        <route edges="-7652899#0 -193573748#0 -7652914 -180084154#5 -180084154#4 -180084154#3 -180084154#2 -180084154#1 -180084154#0 -180084436 -414913286 -180084437 -194378123 180159415 325707995#0 325707995#1 4493727 117991368 296352458"/>
    </vehicle>
    <vehicle id="8" depart="16.00">
        <route edges="-153708584#2 -153708584#1 153708582#0 153708582#1 153708582#2 153708582#3 153708582#4 153708582#5 153708582#6 153708582#7 153708582#8 153708582#9 153708582#10 153708582#11 153708582#12 153708582#13 153708582#14 344525388#2 344525388#3 344525388#0 153708578#0 153708578#1 153708578#2 153708578#3 153708578#4 153708578#5 153708578#6 153708578#7 153708578#8 153708578#9 153708578#10 153708578#11 153708578#12 153708578#13 153708578#14 153708578#15 153708578#16 153708578#17 153708578#18 217399995 109231588#6 1424747280 190096108 454395181 38357011#0 38357011#1 38357011#2 38357011#3 30345551 413254990 180069633#0 180069633#1 413254983 413254981 414802237 413254989 283215102#0 283215102#1 75795718 72493195 283215111"/>
    </vehicle>
    <vehicle id="9" depart="18.00">
        <route edges="42375926 42375925#0 42375925#1 42375925#2 42375925#3 42375925#4 42375925#5 42375925#6 -101078684#4 -101078684#3 -101078684#2 -101078684#1 27706010#0 27706010#1 27706010#2 32462425 32462424#0 32462424#1 32462424#2 20402494 441246635 -14391389#4 -14391389#3 -14391389#2 -14391389#1 -14391389#0 4046046#0 4046046#1 1108129216#0 1108129216#1 30615927#0 30615927#1 30615927#2 30615927#3 24592888 117991366#0 117991366#1 117991366#2 24592885 486842646 486842634 107433865 24592886 122579760 425955558 122579758 107432429 195731211 22986015 22986016 213891154 486842644 486842645 486842641 325560971 -275716839 424803128 424803130 56181152 128226513 153708600#0 153708600#1 178138179 109231588#4 109231588#5 109231588#6 1424747280 190096108 454395181 38357011#0 38357011#1 38357011#2 38357011#3 72493383#0 72493383#1 454395182 454395183 -38357009 -454395185#1 -454395185#0 -899616124 -454395186#1 -454395186#0 -454395187 -47119530#2 -47119530#1 -47119530#0 -1424747277#1 -1424747277#0 -454395189 5107029 153708590 153741242#0 153741242#1"/>
    </vehicle>
    <vehicle id="10" depart="20.00">
        <route edges="10699709#0 10699709#1 10699709#2 10699709#3 -10699708#3 -10699708#2 -10699708#1 -10699708#0 -707835606#0 -297108070#1 -297108070#0 -297108069#1 -297108069#0 -41495985#4 -41495985#3 -41495985#2 -41495985#1 -41495985#0 -41495987#9 -41495987#8 -41495987#7 -41495987#6 -41495987#5 -41495987#4 -41495987#3 -41495987#2 -41495987#1 -41495987#0 -180084154#18 -180084154#17 -180084154#16 -180084154#15 -180084154#14 -180084154#13 -180084154#12 -180084154#11 -180084154#10 -180084154#9 -180084154#8 -180084154#7 -180084154#6 -180084154#5 -180084154#4 -180084154#3 -180084154#2 -53017955#3 -53017955#2 -53017955#1"/>
    </vehicle>
    <vehicle id="11" depart="22.00">
        <route edges="-85292726#0 -24766362#1 -24766362#0 -879465357 -24766361#8 -24766361#7 -24766361#6 -24766361#5 -24766361#4 -24766361#3 -24766361#2 -24766361#1 -24766361#0 24766361#0 24766361#1 24766361#2 24766361#3 24766361#4 24766361#5 24766361#6 24766361#7 24766361#8 879465357 24766362#0 24766362#1 85292726#0 85292726#1 37714643 37714644#0 37714644#1 37714644#2 85292728#0 85292728#1 85292728#2 85292728#3 85292728#4 194378120#0 194378120#1 194378119#0 194378119#1 194378119#2 4493727 117991368 296352458 194378123 180084437 414913286 180084436 180084154#0 180084154#1 180084154#2 180084154#3 180084154#4 180084154#5 7652914 193573748#0 193573748#1 193573748#2 193573748#3 193573748#4 -47085744#5 -47085744#4 -47085744#3 -47085744#2"/>
    </vehicle>
    <vehicle id="12" depart="24.00">
        <route edges="172771393#1 172771393#2 -10697397#0 47120328#11 47120328#12 -173690963#2 -173690963#1 -173690963#0 -10526145#1 -10526145#0 -173690962#1 -173690962#0 -705216271 -37697269#10 -37697269#9 -37697269#8 -37697269#7 -37697269#6 -37697269#5 -37697269#4 -37697269#3 -37697269#2 -37697269#1 -37697269#0 -707835606#3 -707835606#2 -707835606#1 -707835606#0 -297108070#1 -297108070#0 -297108069#1 -297108069#0 -41495985#4 -41495985#3 -41495985#2 -41495985#1 -41495985#0 10526139#0 10526139#1 10526139#2 10526139#3 -176923478#10 -176923478#9 -176923478#8 -176923478#7 -176923478#6 -176923478#5 -176923478#4 -176923478#3 -176923478#2 -176923478#1 -176923478#0 -5106573#1 -5106573#0 -564132915 -564132916 -564132917#2 -564132917#1 -564132917#0 5106574 1418879829#0 1418879829#1 1418879829#2 1418879829#3 8133623#0 8133623#1 564134213#0 564134213#1 564134214 330561877#0 330561877#1 330561878 141351517 708923697 897589041 183251487 413254993 183697641#0 183697641#1 75795726 413254992 413254991 180069634#0 180069634#1 72493383#0 72493383#1 454395182 454395183 -38357009 -454395185#1 -454395185#0 -899616124 -454395186#1 -454395186#0 -454395187 -47119530#2 -47119530#1 -47119530#0 7652320#0 7652320#1 7652320#2 1289757423 178144974 891481309 891481310"/>
    </vehicle>
    <vehicle id="13" depart="26.00">
        <route edges="10526139#2 10526139#3 -10526139#3 -10526139#2 -10526139#1 -10526139#0 41495985#0 41495985#1 41495985#2 41495985#3 41495985#4 297108069#0 297108069#1 297108070#0 297108070#1 707835606#0 707835606#1 707835606#2 707835606#3 10526143#0 10526143#1 -10697391 -47085737#8 -47085737#7 -47085737#6 -47085737#5 -47085737#4 -47085737#3 -47085765#2 47085765#0"/>
    </vehicle>
    <vehicle id="14" depart="28.00">
        <route edges="4629171#0 4629171#1 -4629171#1 -4629171#0 10512929#0"/>
    </vehicle>
    <vehicle id="15" depart="30.00">
        <route edges="40097414#0 -40097414#0 -40070972#1 -40070972#0 -891009548#1 -891009548#0 -32012193#1 -32012193#0 -891481310 -891481309 -178144974 -1289757423 -7652320#2 -7652320#1 -7652320#0 47119530#0 47119530#1 47119530#2 454395187 454395186#0 454395186#1 899616124 454395185#0 454395185#1 38357009 72493193#0 72493193#1 72493193#2 257592886#0 257592886#1 257592886#2 30345551 413254990 180069633#0 180069633#1 413254983 413254981 414802237 413254989 283215102#0 283215102#1 75795718 10904979 75795720 414802236 414802238 190480171 1424747282 1424747281#0 1424747281#1 194378121 283215104 260531020#0 260531020#1 4493727 117991368 296352458 194378123 180084437 414913286 180084436 180084154#0 180084154#1 180084154#2 180084154#3 180084154#4 180084154#5 7652914 193573748#0 193573748#1 193573748#2 193573748#3 193573748#4 47085744#6 47085744#7 47085744#8 47085744#9"/>
    </vehicle>
    <vehicle id="16" depart="32.00">
        <route edges="52151760 41930127 41930128 1384106167#0 1384106167#1 1384106167#2 1384106166 382926525 10508791 -10508791 -382926525 -1384106166 -1384106167#2 -1384106167#1 -1384106167#0 -41930128 -41930127 -52151760 -40206125 -40206124 -52151761 43918012 325707994#0 325707994#1 4493727 117991368 296352458 194378123 -7652812#4 -7652812#3 -7652812#2 -7652812#1 -7652812#0 194455338#0 194455338#1 194455338#2 194455338#3 194455338#4 7652957#0 7652957#1 7652957#2 7652957#3 7652957#4 -84218042 -10698495#4 -10698495#3 -10698495#2 -10699747 10699747"/>
    </vehicle>
    <vehicle id="18" depart="36.00">
        <route edges="7652899#5 10512930#0 -10512930#0 -7652899#5 -7652899#4 -7652899#3 -7652899#2 -7652899#1 -7652899#0 -193573748#0 -7652914 -180084154#5 -180084154#4 -180084154#3 -180084154#2 -180084154#1 -180084154#0 -180084436 -414913286 -180084437 -194378123 180159415 260531023 75795729#1 190492480#0 190492480#1 377916921 -414802238 -414802236 -75795720 -10904979 72493195 283215103#0 283215103#1 196219631 413254982 413254988 413254986 413254985 413254984#0 413254984#1 75795726 413254992 413254991 180069634#0 180069634#1 454395180#0 454395180#1 1424747278#0 1424747278#1 1424747279 183697603 -38357012#25 -38357012#24 -38357012#23 -38357012#22 -38357012#21 -38357012#20 -38357012#19 -38357012#18 -38357012#17 -38357012#16 -38357012#15 -38357012#14 -38357012#13 -38357012#12 -38357012#11 -38357012#10 -38357012#9 -38357012#8 -38357012#7 -38357012#6 -38357012#5 -38357012#4 -38357012#3 -38357012#2 -38357012#1 -38357012#0 499497547#1 -5107025#3 -5107025#2 -5107025#1 -5107025#0 344525388#3 344525388#0 153708578#0 153708578#1 153708578#2 153708578#3 153708578#4 153708578#5 153708578#6 153708578#7 153708578#8 153708578#9 153708578#10 153708578#11 153708578#12 153708578#13 153708578#14"/>
    </vehicle>
    <vehicle id="19" depart="38.00">
        <route edges="7652819#0 7652823 -7652901#10 -7652901#9 -7652901#8 -7652901#7 53017955#2 53017955#3 180084154#2 180084154#3 180084154#4 180084154#5 7652914 193573748#0 193573748#1 193573748#2 193573748#3 193573748#4 -47085744#5 -47085744#4 -47085744#3 -47085744#2 -47085744#1 10526134#0 708072048#2 10512933#0 10512933#1 10512933#2 10512933#3 10512933#4 10512933#5 10512933#6 10512933#7 10512946#0 10512946#1 10512946#2 10512943 -171854140#1 -171854140#0"/>
    </vehicle>
    <vehicle id="20" depart="40.00">
        <route edges="7652901#3 7652901#4 7652901#5 7652901#6 53017955#2 53017955#3 180084154#2 180084154#3 180084154#4 180084154#5 180084154#6 180084154#7 180084154#8 180084154#9 180084154#10 180084154#11 180084154#12 180084154#13 180084154#14 180084154#15 180084154#16 180084154#17 180084154#18 41495987#0 41495987#1 41495987#2 41495987#3 41495987#4 41495987#5 41495987#6 41495987#7 41495987#8 41495987#9 10526139#0 10526139#1 10526139#2 10526139#3 -10526139#3 -10526139#2 -10526139#1 -10526139#0 -41495987#9 -41495987#8 -41495987#7 -41495987#6 -41495987#5"/>
    </vehicle>
    <vehicle id="21" depart="42.00">
        <route edges="-23316742#3 -23316742#2 -23316742#1 -23316742#0 499497548 708072047 47120330#0 47120330#1 23316742#0 23316742#1 23316742#2 23316742#3 23316742#4 -10512950#3 -10512950#2 -10512950#1 -10512950#0 -10526147#8 -10526147#7 -10526147#6 -10526147#5 -10526147#4 -10526147#3 -10526147#2 -10526147#1 -10526147#0 -41495985#2 -41495985#1 -41495985#0 10526139#0 10526139#1 10526139#2 10526139#3 -176923478#10 -176923478#9 -176923478#8 -176923478#7 -176923478#6 -176923478#5 -176923478#4 -176923478#3 -176923478#2 -176923478#1 -176923478#0 -5106573#1 -5106573#0 -564132915 -564132916 -564132917#2 -564132917#1 -564132917#0 5106574 1418879829#0"/>
    </vehicle>
    <vehicle id="22" depart="44.00">
        <route edges="180084154#5 -180084154#5 -180084154#4 -180084154#3 -180084154#2 -180084154#1 -180084154#0 -180084436 -414913286 -180084437 -194378123 180159415 260531023 75795729#1 190492480#0 190492480#1 377916921 -414802238 -414802236 -75795720 -10904979 72493195 283215103#0 283215103#1 196219631 413254982 413254988 413254986 413254985 413254984#0 413254984#1 75795726 413254992 413254991 180069634#0 180069634#1 454395180#0 454395180#1 1424747278#0 1424747278#1 1424747279 183697603 -38357012#25 -38357012#24 -38357012#23 -38357012#22 -38357012#21 -38357012#20 -38357012#19"/>
    </vehicle>
    <vehicle id="23" depart="46.00">
        <route edges="-42375926 -441246638#2 -441246638#1 -441246638#0 441246638#0 441246638#1 441246638#2 42375926 42375925#0 42375925#1 42375925#2 42375925#3 42375925#4 42375925#5 42375925#6 -101078684#4 -101078684#3 -101078684#2 -101078684#1 27706010#0 27706010#1 27706010#2 32462425 32462424#0 32462424#1 32462424#2 20402494 441246635 -14391389#4 -14391389#3 -14391389#2 -14391389#1 -14391389#0 4046046#0 4046046#1 1108129216#0 1108129216#1 30615927#0 30615927#1 30615927#2 30615927#3 24592888 117991366#0 117991366#1 117991366#2 -46195412 -4046004#2 -4046004#1 -4046004#0 -297278129 -1424767161 -297278128 -17968031 499496030 -499497552 -499497735 -1424767157 -1424767158 -1424767159 -1424767160#1 -1424767160#0 -47120337 -1424767156#1 -1424767156#0 10526145#0 10526145#1 173690963#0 173690963#1 173690963#2 47085737#1 47085737#2 47085737#3 47085737#4 47085737#5 47085737#6 47085737#7 47085737#8"/>
    </vehicle>
    <vehicle id="24" depart="48.00">
        <route edges="-39575842#2 -39575842#1 -39575842#0 -47120331#0 -10512950#3 -10512950#2 -10512950#1 -10512950#0 -10526147#8 -10526147#7 -10526147#6 -10526147#5 -10526147#4 -10526147#3 -10526147#2 -10526147#1 -10526147#0 41495985#3 41495985#4 297108069#0 297108069#1 297108070#0 297108070#1 707835606#0 707835606#1 707835606#2 707835606#3 37697269#0 37697269#1 37697269#2 37697269#3 37697269#4 37697269#5 37697269#6 37697269#7 37697269#8 37697269#9 37697269#10 705216271 173690962#0 173690962#1 -392235603#3 -392235603#2 -392235603#1 -392235603#0 -198072737#9 -198072737#8"/>
    </vehicle>
    <vehicle id="25" depart="50.00">
        <route edges="-153708582#9 -153708582#8 -153708582#7 -153708582#6 -153708582#5 -153708582#4 -153708582#3 -153708582#2 -153708582#1 -153708582#0 153708582#0 153708582#1 153708582#2 153708582#3 153708582#4 153708582#5 153708582#6 153708582#7 153708582#8 153708582#9 153708582#10 153708582#11 153708582#12 153708582#13 153708582#14 344525388#2 5107025#0 5107025#1 5107025#2 5107025#3 499497547#2 499497547#3 38357010#0 38357010#1 38357010#2 38357010#3 38357010#4 38357010#5 38357010#6 343512755#0 343512755#1 -454395186#1 -454395186#0 -454395187 -47119530#2 -47119530#1 -47119530#0 -1424747277#1 -1424747277#0 -454395189 5107029 318381101#0 318381101#1 318381101#2 318381101#3 318381101#4 318381101#5 8160035#0 8160035#1 515005410#0"/>
    </vehicle>
    <vehicle id="26" depart="52.00">
        <route edges="7652891#6 47085744#0 10526134#0 -708072048#1 -708072048#0 -10512929#5 -10512929#4 -10512929#3 -10512929#2 -10512929#1 -10512929#0 41495987#0 41495987#1 41495987#2 41495987#3 41495987#4 41495987#5 41495987#6 41495987#7 41495987#8 41495987#9 41495985#0 41495985#1 41495985#2 41495985#3 41495985#4 297108069#0 297108069#1 297108070#0 297108070#1 707835606#0 707835606#1 707835606#2 707835606#3 37697269#0 37697269#1 37697269#2 37697269#3 37697269#4 37697269#5 37697269#6 37697269#7 37697269#8 37697269#9 37697269#10 -37697269#10 -37697269#9 -37697269#8 -37697269#7"/>
    </vehicle>
    <vehicle id="27" depart="54.00">
        <route edges="33096249#2 33096249#3 33096249#4 -1424767158 -1424767159 -1424767160#1 -1424767160#0 -47120337 -1424767156#1 -1424767156#0 -173690962#1 -173690962#0 -705216271 -37697269#10 -37697269#9 -37697269#8 -37697269#7 -37697269#6 -37697269#5 -37697269#4 -37697269#3 -37697269#2 -37697269#1 -37697269#0 -707835606#3 -707835606#2 -707835606#1 -707835606#0 -297108070#1 -297108070#0 -297108069#1 -297108069#0 -41495985#4 -41495985#3 10526147#0 10526147#1 10526147#2 10526147#3 10526147#4 10526147#5 10526147#6 10526147#7 10526147#8 10512950#0 10512950#1 10512950#2 10512950#3 -23316742#4 -23316742#3 -23316742#2 -23316742#1 -23316742#0 499497548 708072047 -708072046 -708072045 -10526133#6 -10526133#5 -10526133#4 -10526133#3 -10526133#2 -10526133#1 -10526133#0 -10512933#7 -10512933#6"/>
    </vehicle>
    <vehicle id="28" depart="56.00">
        <route edges="-7652379#2 -7652379#1 -7652379#0 -32012193#0 -891481310 -891481309 -178144974 -1289757423 -7652320#2 -7652320#1 -7652320#0 47119530#0 47119530#1 47119530#2 454395187 454395186#0 454395186#1 899616124 454395185#0 454395185#1 38357009 72493193#0 72493193#1 72493193#2 257592886#0 257592886#1 257592886#2 30345551 413254990 180069633#0 180069633#1 413254983 413254981 414802237 413254989 283215102#0 283215102#1 75795718 10904979 75795720 414802236 414802238 190480171 1424747282 1424747281#0 1424747281#1 194378121 283215104 260531020#0 260531020#1 4493727 117991368 296352458 194378123 -880587891 945676946 945676664#0 945676664#1 -945676668 -47120329#1 -10512930#4 -10512930#3 -10512930#2 10512930#2"/>
    </vehicle>
    <vehicle id="29" depart="58.00">
        <route edges="23316541#1 23316541#2 23316541#3 23316541#4 23316541#5 23316541#6 23316541#7 1198953653#0 1198953653#1 -14854197 -1108128948#1 -1108128948#0 -1108128947 -1108128613#2 -1108128613#1 -1108128613#0 -1108128612#3 -1108128612#2 -1108128612#1 -1108128612#0 -30610971 -46717843#2 -46717843#1 -46717843#0 -46717844#2 -46717844#1 -46717844#0 -30571475 -1203803777#2 -1203803777#1 -1203803777#0 -47852795#1 -47852795#0 -1211997773#2 -1211997773#1 -1211997773#0 618206086 4046109#0 4046109#1 -425955555#1 -425955555#0 -425955556 -435835283 -435834327 -435834326 -164028191 -164028189#2 -164028189#1 -164028189#0 -46195412 -4046004#2 -4046004#1 -4046004#0 -297278129 -1424767161 -297278128 -17968031 499496030 -499497552 -499497735 -1424767157 -1424767158 -1424767159 -1424767160#1 -1424767160#0 -47120337 -1424767156#1 -1424767156#0 -173690962#1 -173690962#0 -705216271 -37697269#10 -37697269#9 -37697269#8 -37697269#7 -37697269#6 -37697269#5 -37697269#4 -37697269#3 -37697269#2 -37697269#1 -37697269#0 -707835606#3 -707835606#2 -707835606#1 -707835606#0 -297108070#1 -297108070#0 -297108069#1 -297108069#0 -41495985#4 -41495985#3 -41495985#2 -41495985#1 -41495985#0 -41495987#9 -41495987#8 -41495987#7 -41495987#6 -41495987#5 -41495987#4 -41495987#3 -41495987#2 -41495987#1 -41495987#0 10512929#0 10512929#1 10512929#2 10512929#3 10512929#4 10512929#5 -23316741#2 -23316741#1 -10512934#5 -10512934#4 -10512934#3 -10512934#2 -10512934#1 -10512934#0"/>
    </vehicle>
    <vehicle id="30" depart="60.00">
        <route edges="27706010#0 27706010#1 27706010#2 32462425 32462424#0 32462424#1 32462424#2 20402494 441246635 -14391389#4 -14391389#3 -14391389#2 -14391389#1 -14391389#0 4046046#0 4046046#1 1108129216#0 1108129216#1 30615927#0 30615927#1 30615927#2 30615927#3 24592888 117991366#0 117991366#1 117991366#2 24592885 486842646 486842634 107433865 24592886 122579760 425955558 122579758 107432429 195731211 22986015 22986016 213891154 486842644 486842645 486842641 325560971 -275716839 424803128 424803130 56181152 128226513 153708600#0 153708600#1 178138179 109231588#4 109231588#5 109231588#6 1424747280 190096108 454395181 38357011#0 38357011#1 38357011#2 38357011#3 72493383#0 72493383#1 454395182 454395183 -38357009 -454395185#1 -454395185#0 -899616124 7652599 -51353192 -1218662627#0 151689215#0 151689215#1 151689215#2 151689215#3 151689215#4 151689215#5 151689215#6 151689215#7 151689215#8 151689215#9"/>
    </vehicle>
    <vehicle id="31" depart="62.00">
        <route edges="7653016#1 -116634978#2 -116634978#1 -198072736#1 -198072736#0 -1450839275#1 -194455338#4 -194455338#3 -194455338#2 -194455338#1 -194455338#0 -5106573#1 -5106573#0 -564132915 -564132916 -564132917#2 -564132917#1 -564132917#0 5106574 1418879829#0 1418879829#1 1418879829#2 1418879829#3 8133623#0 8133623#1 564134213#0 564134213#1 564134214 330561877#0 330561877#1 330561878 141351517 708923697 897589041 183251487 413254993 183697641#0 183697641#1 413254983 413254981 414802237 413254989 283215102#0 283215102#1 292797060#0 292797060#1 43418116 283215112 283215106 -283215106 -283215112"/>
    </vehicle>
    <vehicle id="32" depart="64.00">
        <route edges="10068900#1 10068900#2 10068900#3 10068900#4 -10068900#4 -10068900#3 -10068900#2 -10068900#1 -10068900#0 24766361#0 24766361#1 24766361#2 24766361#3 24766361#4 24766361#5 24766361#6 24766361#7 24766361#8 879465357 24766362#0 24766362#1 85292726#0 85292726#1 37714643 37714644#0 37714644#1 37714644#2 85292728#0 85292728#1 85292728#2 85292728#3 85292728#4 194378120#0 194378120#1 194378119#0 194378119#1 194378119#2 4493727 117991368 296352458 194378123 180084437 414913286 180084436 180084154#0 180084154#1 180084154#2 180084154#3 180084154#4 180084154#5 7652914 193573748#0 7652899#0 7652899#1 7652899#2 7652891#0 7652891#1 7652891#2 7652891#3 7652891#4 -7652891#4 -7652891#3"/>
    </vehicle>
    <vehicle id="33" depart="66.00">
        <route edges="-7652640#0 7652640#0 7652640#1 82431822 -8133623#1 -8133623#0 -1418879829#3 -1418879829#2 -1418879829#1 -1418879829#0 -5106574 564132917#0 564132917#1 564132917#2 564132916 564132915 5106573#0 5106573#1 176923478#0 176923478#1 176923478#2 176923478#3 176923478#4 176923478#5 176923478#6 176923478#7 176923478#8 176923478#9 176923478#10 -10526139#3 -10526139#2 -10526139#1 -10526139#0 41495985#0 41495985#1 41495985#2 41495985#3 41495985#4 297108069#0 297108069#1 297108070#0 297108070#1 707835606#0 10699708#0 10699708#1 10699708#2 10699708#3 -10699709#3 -10699709#2 -10699709#1"/>
    </vehicle>
    <vehicle id="34" depart="68.00">
        <route edges="189539003 40206131 871457376 945676665 40206132 24766412 4061870#0 4061870#1 945676667 880587891 -194378123 180159415 325707995#0 325707995#1 75795729#0"/>
    </vehicle>
    <vehicle id="36" depart="72.00">
        <route edges="-454395192#1 -454395192#0 -454395191 -441856853 -454395193#1 454395193#1 441856853 454395191 454395192#0 454395192#1 454395190 72493191 454395195 454395194 72493189#0 72493189#1 72493189#2 72493189#3 72493189#4 454395188 454395189 1424747277#0 1424747277#1 47119530#0 47119530#1 47119530#2 454395187 454395186#0 454395186#1 899616124 454395185#0 454395185#1 38357009 72493193#0 72493193#1 72493193#2 257592886#0 257592886#1 257592886#2 30345551 413254990 180069633#0 180069633#1 413254983 413254981 414802237 413254989 283215102#0 283215102#1 75795718 10904979 75795720 414802236 414802238 190480171 1424747282 1424747281#0 1424747281#1 194378121 283215104 260531020#0 260531020#1 4493727"/>
    </vehicle>
    <vehicle id="37" depart="74.00">
        <route edges="-20846342#1 -20846342#0 -844719026#1 -844719026#0 20846334#4 421490646 116674612 919264500 69365997#0 69365997#1 69365997#2 876184267#0 876184267#1 876184267#2 24766361#0 24766361#1 24766361#2 24766361#3 24766361#4 24766361#5 24766361#6 24766361#7 24766361#8 879465357 24766362#0 24766362#1 85292726#0 85292726#1 37714643 37714644#0 37714644#1 37714644#2 85292728#0 85292728#1 85292728#2 85292728#3 85292728#4 194378120#0 194378120#1 194378119#0 194378119#1 194378119#2 75795729#0 75795729#1 190492480#0 190492480#1 190497903#1 283215108#0 283215108#1 286340141 290415786 290413967 155363779#0 155363779#1 -206912744 155363786 -122579758 -425955558 -122579760 -24592886 425955557 486842612 425955561 425955559 159713412#0 159713412#1 24592889#0 24592889#1 117991367 -30615927#3 -30615927#2 -30615927#1 -30615927#0 -1108129216#1 -1108129216#0 -4046046#1 -4046046#0 14391389#0 14391389#1 14391389#2 14391389#3 14391389#4 441246636#0 441246636#1 441246637 620453667 -32462424#2 -32462424#1 -32462424#0 -32462425 -27706010#2 -27706010#1 159712947#0 159712947#1 159712947#2 159712947#3"/>
    </vehicle>
    <vehicle id="38" depart="76.00">
        <route edges="7652607#5 7652607#6 7652607#7 7652607#8 -7652607#8 -7652607#7 -7652607#6 -7652607#5 -7652607#4 -7652607#3 -7652607#2 -7652607#1 -7652607#0 -7652605#10 -7652605#9 -7652605#8 -7652605#7 -7652605#6 -7652605#5 -7652605#4 -7652605#3 -7652605#2 -7652605#1 -7652605#0 30345609#0 30345609#1 30345609#2 30345609#3 30345609#4 33703774#0 33703774#1 183697613#0 183697613#1 183697613#2 30345551 413254990 180069633#0 180069633#1 413254983 413254981 414802237 413254989 283215102#0 283215102#1 75795718 10904979 75795720 414802236 414802238 190480171 1424747282 1424747281#0 1424747281#1 194378121 283215104 260531020#0 260531020#1 4493727 117991368 296352458 194378123 180084437 414913286 180084436 180084154#0 180084154#1 180084154#2 180084154#3 180084154#4 180084154#5 7652914 193573748#0 193573748#1 193573748#2 193573748#3 193573748#4 -47085744#5 -47085744#4 -47085744#3 -47085744#2"/>
    </vehicle>
    <vehicle id="39" depart="78.00">
        <route edges="4061750#7 4061750#8 4061750#9 4061750#10 -4061750#10 -4061750#9 -4061750#8 -4061750#7 -4061750#6 -4061750#5 -4061750#4 -4061750#3 -4061750#2 -4061750#1 -4061750#0 72493189#0 72493189#1 72493189#2 72493189#3 72493189#4 454395188 454395189 1424747277#0 1424747277#1 47119530#0 47119530#1 47119530#2 454395187 454395186#0 454395186#1 899616124 454395185#0 454395185#1 38357009 72493193#0 72493193#1 72493193#2 257592886#0 257592886#1 257592886#2 30345551 413254990 180069633#0 180069633#1 413254983 413254981 414802237 413254989 283215102#0 283215102#1 75795718 10904979 75795720 414802236 414802238 190480171 1424747282 1424747281#0 1424747281#1 194378121 283215104 260531020#0 260531020#1 -194378119#2 -194378119#1 -194378119#0 -194378120#1 -194378120#0 -85292728#4 -85292728#3 -85292728#2 -85292728#1 -85292728#0 -37714644#2 -37714644#1 -37714644#0 -37714643 -85292726#1 -85292726#0 -24766362#1 -24766362#0 -879465357 -24766361#8 -24766361#7 -24766361#6 -24766361#5 -24766361#4 -24766361#3 -24766361#2"/>
    </vehicle>
    <vehicle id="40" depart="80.00">