<?xml version="1.0" encoding="UTF-8"?>

<!-- generated on 12/17/25 19:21:46 by Eclipse SUMO polyconvert Version 1.5.0
<configuration xmlns:xsi="http://www.w3.org/2001/XMLSchema-instance" xsi:noNamespaceSchemaLocation="http://sumo.dlr.de/xsd/polyconvertConfiguration.xsd">

    <input>
        <net-file value="garching.net.xml"/>
        <osm-files value="garching_raw.osm"/>
    </input>

    <output>
        <output-file value="garching.poly.xml"/>
    </output>

    <processing>
        <poi-layer-offset value="5"/>
    </processing>

</configuration>
-->

<additional xmlns:xsi="http://www.w3.org/2001/XMLSchema-instance" xsi:noNamespaceSchemaLocation="http://sumo.dlr.de/xsd/additional_file.xsd">
    <location netOffset="-692750.48,-5344016.70" convBoundary="-0.00,-686.30,6337.31,6168.67" origBoundary="11.597164,48.212999,11.682974,48.274486" projParameter="+proj=utm +zone=32 +ellps=WGS84 +datum=WGS84 +units=m +no_defs"/>

    <poly id="100182986" type="building" color="255,230,230" fill="1" layer="-1.00" shape="5435.175187,4817.164132 5423.291567,4819.821653 5415.377207,4784.640228 5427.268315,4781.982948 5435.175187,4817.164132"/>
    <poly id="100182989" type="building" color="255,230,230" fill="1" layer="-1.00" shape="5826.650242,5035.432480 5830.052737,5050.138962 5799.540457,5057.142155 5796.137502,5042.446806 5826.650242,5035.432480"/>
    <poly id="100182992" type="building" color="255,230,230" fill="1" layer="-1.00" shape="5678.047901,5054.286721 5687.649339,5052.084323 5681.925209,5027.238026 5662.385242,5031.720133 5662.016487,5030.149471 5659.759370,5020.512534 5659.309249,5018.505076 5658.280733,5013.907075 5653.033989,5013.735381 5648.425010,5016.156302 5654.820737,5043.907908 5674.607471,5039.378741 5678.047901,5054.286721"/>
    <poly id="100613054" type="building" color="255,230,230" fill="1" layer="-1.00" shape="5856.411739,4803.287916 5852.603715,4787.209763 5864.589943,4784.389789 5868.398324,4800.456838 5856.411739,4803.287916"/>
    <poly id="100613056" type="building" color="255,230,230" fill="1" layer="-1.00" shape="5795.921385,4654.221083 5799.525119,4670.625873 5787.905370,4673.158337 5790.669087,4685.739448 5772.011625,4689.806935 5767.292463,4668.311518 5784.250300,4664.618719 5782.601914,4657.128260 5795.921385,4654.221083"/>
    <poly id="100613057" type="building" color="255,230,230" fill="1" layer="-1.00" shape="5884.121263,4837.268972 5863.738084,4842.043715 5862.617202,4837.754012 5866.624170,4836.836685 5860.594691,4810.532991 5877.123720,4806.769897 5884.121263,4837.268972"/>
    <poly id="100613059" type="building" color="255,230,230" fill="1" layer="-1.00" shape="5728.339560,4698.499416 5742.293500,4695.291545 5741.228248,4690.681124 5743.168111,4690.236888 5741.831851,4684.448661 5739.697103,4684.941741 5733.690367,4659.028481 5719.923422,4662.198386 5722.572123,4673.607088 5725.988870,4688.347346 5728.339560,4698.499416"/>
    <poly id="100613061" type="building" color="255,230,230" fill="1" layer="-1.00" shape="5720.760048,4699.804182 5700.512465,4704.517492 5698.314334,4695.316567 5697.685837,4692.457223 5703.206633,4691.169697 5703.756858,4693.503334 5705.360059,4693.125244 5718.483678,4690.077541 5718.936914,4691.996093 5720.760048,4699.804182"/>
    <poly id="101078683" type="building" color="255,230,230" fill="1" layer="-1.00" shape="5766.416569,5034.211199 5746.171199,5038.679556 5743.993856,5028.889576 5740.692569,5013.830616 5740.225250,5011.677897 5740.039497,5010.825752 5760.204880,5006.310070 5760.407737,5006.884631 5760.830913,5009.024687 5761.857142,5014.112230 5766.416569,5034.211199"/>
    <poly id="101078686" type="building" color="255,230,230" fill="1" layer="-1.00" shape="5632.396906,4806.383878 5622.258466,4808.634448 5614.316318,4773.218034 5613.327855,4773.439527 5610.961260,4762.886380 5621.099773,4760.635788 5623.460092,4771.155339 5624.448556,4770.933848 5632.396906,4806.383878"/>
    <poly id="1011801369" type="building" color="255,230,230" fill="1" layer="-1.00" shape="4483.346027,3759.658591 4477.931278,3754.864505 4474.507526,3758.885225 4472.970594,3760.779245 4474.734276,3762.208938 4474.739781,3763.766916 4479.870318,3763.677508 4483.346027,3759.658591"/>
    <poly id="1011801370" type="building" color="255,230,230" fill="1" layer="-1.00" shape="4473.869862,3766.785609 4468.830960,3773.242869 4475.283866,3778.529101 4477.502420,3775.835280 4479.576171,3775.606653 4479.175910,3772.143407 4479.818117,3771.409004 4473.869862,3766.785609"/>
    <poly id="1011801371" type="building" color="255,230,230" fill="1" layer="-1.00" shape="4463.891889,3776.387728 4460.409662,3780.595590 4469.737699,3788.262404 4473.220313,3784.043434 4463.891889,3776.387728"/>
    <poly id="1011801372" type="building" color="255,230,230" fill="1" layer="-1.00" shape="4459.676166,3740.824367 4454.737891,3736.647663 4448.005971,3744.570735 4452.936822,3748.747176 4459.676166,3740.824367"/>
    <poly id="1011801373" type="building" color="255,230,230" fill="1" layer="-1.00" shape="4452.936822,3748.747176 4457.875087,3752.923879 4464.614435,3745.001075 4459.676166,3740.824367 4452.936822,3748.747176"/>
    <poly id="1011801374" type="building" color="255,230,230" fill="1" layer="-1.00" shape="4473.220313,3784.043434 4476.772426,3779.748982 4475.283866,3778.529101 4468.830960,3773.242869 4467.444383,3772.082157 4463.891889,3776.387728 4473.220313,3784.043434"/>
    <poly id="1011801375" type="building" color="255,230,230" fill="1" layer="-1.00" shape="4474.739781,3763.766916 4474.747321,3765.480744 4473.869862,3766.785609 4479.818117,3771.409004 4487.136956,3763.061208 4483.346027,3759.658591 4479.870318,3763.677508 4474.739781,3763.766916"/>
    <poly id="1011801376" type="building" color="255,230,230" fill="1" layer="-1.00" shape="4479.264076,3753.286103 4477.931278,3754.864505 4474.507526,3758.885225 4472.254911,3756.982395 4471.364420,3758.019760 4468.209426,3755.351303 4468.968353,3754.465161 4466.686816,3752.539077 4469.545273,3749.177531 4471.574927,3746.788725 4479.264076,3753.286103"/>
    <poly id="1011801377" type="building" color="255,230,230" fill="1" layer="-1.00" shape="4457.875087,3752.923879 4462.813730,3757.089472 4466.686816,3752.539077 4469.545273,3749.177531 4464.614435,3745.001075 4457.875087,3752.923879"/>
    <poly id="1011801378" type="building" color="255,230,230" fill="1" layer="-1.00" shape="4439.698841,3735.960124 4442.546676,3732.475800 4432.239590,3724.107525 4430.927912,3725.720050 4429.836394,3724.836611 4428.299855,3726.719529 4439.698841,3735.960124"/>
    <poly id="1011801379" type="building" color="255,230,230" fill="1" layer="-1.00" shape="4424.138996,3729.279374 4420.732151,3733.456488 4429.432782,3740.789953 4430.161630,3739.913892 4432.943390,3742.202214 4435.783797,3738.717629 4424.138996,3729.279374"/>
    <poly id="1011801380" type="building" color="255,230,230" fill="1" layer="-1.00" shape="4442.546676,3732.475800 4443.146561,3732.963902 4445.211284,3730.420523 4448.145832,3732.803158 4453.531550,3726.202107 4439.689251,3714.985305 4432.239590,3724.107525 4442.546676,3732.475800"/>
    <poly id="1011801381" type="building" color="255,230,230" fill="1" layer="-1.00" shape="4417.255433,3737.720202 4413.701036,3742.081373 4422.259260,3749.020451 4423.671266,3747.300127 4426.468639,3749.566732 4428.618455,3746.926149 4417.255433,3737.720202"/>
    <poly id="1011801382" type="building" color="255,230,230" fill="1" layer="-1.00" shape="4428.299855,3726.719529 4427.019791,3728.277515 4425.776253,3727.277544 4424.138996,3729.279374 4435.783797,3738.717629 4436.788553,3739.531304 4439.698841,3735.960124 4428.299855,3726.719529"/>
    <poly id="1011801383" type="building" color="255,230,230" fill="1" layer="-1.00" shape="4372.967262,3740.048490 4369.840127,3741.297773 4373.168774,3755.054714 4378.218943,3752.992947 4372.967262,3740.048490"/>
    <poly id="1011801384" type="building" color="255,230,230" fill="1" layer="-1.00" shape="4387.301529,3749.290411 4391.642484,3747.537922 4386.411939,3734.627563 4382.070976,3736.380057 4387.301529,3749.290411"/>
    <poly id="1011801385" type="building" color="255,230,230" fill="1" layer="-1.00" shape="4391.642484,3747.537922 4393.451120,3746.810497 4393.800804,3747.657128 4396.566676,3746.540006 4390.986454,3732.783012 4386.411939,3734.627563 4391.642484,3747.537922"/>
    <poly id="1011801386" type="building" color="255,230,230" fill="1" layer="-1.00" shape="4378.218943,3752.992947 4380.042805,3752.254919 4380.385453,3753.090178 4383.173585,3751.973820 4377.579649,3738.182985 4372.967262,3740.048490 4378.218943,3752.992947"/>
    <poly id="1011801387" type="building" color="255,230,230" fill="1" layer="-1.00" shape="4401.328480,3743.578115 4406.159196,3741.631173 4400.941982,3728.765769 4396.111257,3730.712715 4401.328480,3743.578115"/>
    <poly id="1011801388" type="building" color="255,230,230" fill="1" layer="-1.00" shape="4396.111257,3730.712715 4390.986454,3732.783012 4396.566676,3746.540006 4399.091191,3745.525803 4398.721165,3744.622833 4401.328480,3743.578115 4396.111257,3730.712715"/>
    <poly id="1011801389" type="building" color="255,230,230" fill="1" layer="-1.00" shape="4378.727362,3777.167350 4372.346576,3777.525139 4373.062521,3790.334886 4379.442908,3789.988213 4378.727362,3777.167350"/>
    <poly id="1011801390" type="building" color="255,230,230" fill="1" layer="-1.00" shape="4391.421926,3785.473508 4397.095294,3785.158019 4396.865738,3781.055321 4396.368019,3772.247730 4390.695022,3772.552106 4391.421926,3785.473508"/>
    <poly id="1011801391" type="building" color="255,230,230" fill="1" layer="-1.00" shape="4423.122532,3776.033423 4427.364808,3779.707545 4419.432418,3788.824193 4415.182723,3785.149820 4423.122532,3776.033423"/>
    <poly id="1011801392" type="building" color="255,230,230" fill="1" layer="-1.00" shape="4427.364808,3779.707545 4431.758712,3783.509317 4423.826319,3792.625959 4419.432418,3788.824193 4427.364808,3779.707545"/>
    <poly id="1011801393" type="building" color="255,230,230" fill="1" layer="-1.00" shape="4411.121629,3779.890811 4407.572909,3776.574519 4410.700321,3765.655863 4414.602777,3768.628336 4415.595129,3767.438710 4419.286299,3770.504016 4411.121629,3779.890811"/>
    <poly id="1011801394" type="building" color="255,230,230" fill="1" layer="-1.00" shape="4407.572909,3776.574519 4402.431120,3776.774872 4401.912837,3767.488105 4401.768572,3764.356412 4405.878306,3764.131463 4405.942936,3765.914027 4410.700321,3765.655863 4407.572909,3776.574519"/>
    <poly id="1011801395" type="building" color="255,230,230" fill="1" layer="-1.00" shape="4435.591669,3788.059441 4437.568396,3789.774673 4438.799301,3788.348514 4441.100790,3790.342039 4432.549228,3800.171621 4428.270630,3796.473982 4435.591669,3788.059441"/>
    <poly id="1011801396" type="building" color="255,230,230" fill="1" layer="-1.00" shape="4428.270630,3796.473982 4423.826319,3792.625959 4431.758712,3783.509317 4432.261926,3782.925876 4434.859264,3785.174435 4433.744692,3786.459971 4435.591669,3788.059441 4428.270630,3796.473982"/>
    <poly id="1011801397" type="building" color="255,230,230" fill="1" layer="-1.00" shape="4436.769982,3803.822752 4432.549228,3800.171621 4441.100790,3790.342039 4443.546872,3792.451842 4442.239052,3793.953227 4444.021149,3795.494819 4436.769982,3803.822752"/>
    <poly id="1011801398" type="building" color="255,230,230" fill="1" layer="-1.00" shape="4444.021149,3795.494819 4446.323017,3797.477233 4447.762400,3795.824625 4450.172137,3797.910918 4443.377721,3805.709431 4441.481584,3807.891453 4436.769982,3803.822752 4444.021149,3795.494819"/>
    <poly id="1011801399" type="building" color="255,230,230" fill="1" layer="-1.00" shape="4450.172137,3797.910918 4451.960138,3795.847552 4456.801488,3800.032029 4448.218682,3809.905014 4443.377721,3805.709431 4450.172137,3797.910918"/>
    <poly id="1011801400" type="building" color="255,230,230" fill="1" layer="-1.00" shape="4415.182723,3785.149820 4411.654464,3782.101282 4412.521136,3781.107592 4411.121629,3779.890811 4419.286299,3770.504016 4422.944698,3773.657206 4421.838319,3774.920774 4423.122532,3776.033423 4415.182723,3785.149820"/>
    <poly id="1011801401" type="building" color="255,230,230" fill="1" layer="-1.00" shape="4396.865738,3781.055321 4402.650828,3780.732577 4402.431120,3776.774872 4401.912837,3767.488105 4396.120312,3767.810593 4396.368019,3772.247730 4396.865738,3781.055321"/>
    <poly id="1011801402" type="building" color="255,230,230" fill="1" layer="-1.00" shape="4390.695022,3772.552106 4384.842741,3772.883664 4385.063232,3776.819141 4385.664367,3787.577542 4389.416666,3787.373594 4389.314920,3785.589745 4391.421926,3785.473508 4390.695022,3772.552106"/>
    <poly id="1011801403" type="building" color="255,230,230" fill="1" layer="-1.00" shape="4379.442908,3789.988213 4385.778764,3789.640005 4385.664367,3787.577542 4385.063232,3776.819141 4378.727362,3777.167350 4379.442908,3789.988213"/>
    <poly id="1011801404" type="building" color="255,230,230" fill="1" layer="-1.00" shape="4387.575347,3825.976346 4388.282198,3822.729458 4385.328517,3821.759325 4385.628406,3820.823905 4375.403548,3814.806379 4373.507841,3822.774499 4387.575347,3825.976346"/>
    <poly id="1011801405" type="building" color="255,230,230" fill="1" layer="-1.00" shape="4381.364104,3809.627170 4375.403548,3814.806379 4385.628406,3820.823905 4386.663853,3819.891688 4388.859127,3821.948278 4391.317780,3819.830216 4381.364104,3809.627170"/>
    <poly id="1011801406" type="building" color="255,230,230" fill="1" layer="-1.00" shape="4393.387263,3800.830086 4389.891471,3802.211249 4390.388283,3803.530308 4386.473892,3805.197415 4392.769282,3814.606234 4394.091999,3813.962136 4395.594552,3816.495471 4399.151253,3815.071912 4393.387263,3800.830086"/>
    <poly id="1011801407" type="building" color="255,230,230" fill="1" layer="-1.00" shape="4411.191265,3799.777254 4405.685019,3798.485090 4405.361207,3799.252776 4401.629844,3798.422623 4402.891693,3810.272093 4404.226633,3810.563093 4403.725485,3812.804538 4407.030700,3813.708959 4411.191265,3799.777254"/>
    <poly id="1011801408" type="building" color="255,230,230" fill="1" layer="-1.00" shape="4424.705018,3807.600002 4421.494823,3803.950479 4420.512092,3804.862261 4418.137695,3802.398884 4413.074650,3813.206027 4413.991551,3814.840060 4412.464656,3816.445138 4414.036625,3818.046209 4424.705018,3807.600002"/>
    <poly id="1011801409" type="building" color="255,230,230" fill="1" layer="-1.00" shape="4416.534993,3824.441724 4417.073268,3831.003060 4429.786899,3829.952126 4429.570405,3826.116926 4431.520764,3826.017536 4431.388014,3823.197797 4416.534993,3824.441724"/>
    <poly id="1011801410" type="building" color="255,230,230" fill="1" layer="-1.00" shape="4431.388014,3823.197797 4431.133126,3817.681084 4428.937834,3817.771996 4428.829000,3815.119991 4417.716901,3819.063763 4417.860634,3820.493000 4416.234538,3820.670382 4416.534993,3824.441724 4431.388014,3823.197797"/>
    <poly id="1011801411" type="building" color="255,230,230" fill="1" layer="-1.00" shape="4407.030700,3813.708959 4410.644565,3814.713082 4411.181288,3812.517377 4413.074650,3813.206027 4418.137695,3802.398884 4416.205793,3801.964820 4416.462310,3800.994519 4411.191265,3799.777254 4407.030700,3813.708959"/>
    <poly id="1011801412" type="building" color="255,230,230" fill="1" layer="-1.00" shape="4399.151253,3815.071912 4402.782063,3813.439507 4401.776295,3810.723077 4402.891693,3810.272093 4401.629844,3798.422623 4397.027724,3800.421986 4396.634665,3799.540472 4393.387263,3800.830086 4399.151253,3815.071912"/>
    <poly id="1011801413" type="building" color="255,230,230" fill="1" layer="-1.00" shape="4391.317780,3819.830216 4393.936145,3817.606413 4391.948191,3815.356709 4392.769282,3814.606234 4386.473892,3805.197415 4381.364104,3809.627170 4391.317780,3819.830216"/>
    <poly id="1011801414" type="building" color="255,230,230" fill="1" layer="-1.00" shape="4373.507841,3822.774499 4372.132846,3828.579739 4372.669764,3831.101905 4383.358149,3830.381354 4383.683537,3828.923846 4386.798350,3829.532363 4387.575347,3825.976346 4373.507841,3822.774499"/>
    <poly id="1011801415" type="building" color="255,230,230" fill="1" layer="-1.00" shape="4414.036625,3818.046209 4415.507762,3819.554774 4416.986775,3818.259597 4417.716901,3819.063763 4428.829000,3815.119991 4427.649908,3813.332228 4428.881031,3812.328903 4424.705018,3807.600002 4414.036625,3818.046209"/>
    <poly id="1011803621" type="building" color="255,230,230" fill="1" layer="-1.00" shape="4456.506387,3998.072254 4458.299702,4005.511583 4472.379297,4002.126871 4470.585613,3994.698650 4456.506387,3998.072254"/>
    <poly id="1011803622" type="building" color="255,230,230" fill="1" layer="-1.00" shape="4454.705259,3990.643782 4456.506387,3998.072254 4470.585613,3994.698650 4468.792309,3987.259317 4454.705259,3990.643782"/>
    <poly id="1011803623" type="building" color="255,230,230" fill="1" layer="-1.00" shape="4466.922100,3964.228314 4474.619611,3961.891112 4470.802959,3949.363416 4463.105433,3951.700624 4466.922100,3964.228314"/>
    <poly id="1011803624" type="building" color="255,230,230" fill="1" layer="-1.00" shape="4459.232403,3966.554670 4466.922100,3964.228314 4463.105433,3951.700624 4455.408299,3954.026728 4459.232403,3966.554670"/>
    <poly id="1011803625" type="building" color="255,230,230" fill="1" layer="-1.00" shape="4451.534905,3968.891893 4459.232403,3966.554670 4455.408299,3954.026728 4447.710787,3956.363957 4451.534905,3968.891893"/>
    <poly id="1011803626" type="building" color="255,230,230" fill="1" layer="-1.00" shape="4425.738133,3998.642718 4423.633663,3991.604331 4425.059978,3991.186370 4435.668673,3988.037479 4437.773130,3995.075871 4425.738133,3998.642718"/>
    <poly id="1011803627" type="building" color="255,230,230" fill="1" layer="-1.00" shape="4438.535439,4002.891200 4440.719329,4010.210519 4428.511735,4013.827019 4426.327831,4006.507704 4427.941998,4006.029485 4438.535439,4002.891200"/>
    <poly id="1011803628" type="building" color="255,230,230" fill="1" layer="-1.00" shape="4425.059978,3991.186370 4422.869791,3983.833460 4434.822406,3980.286007 4437.012580,3987.638922 4435.668673,3988.037479 4425.059978,3991.186370"/>
    <poly id="1011803629" type="building" color="255,230,230" fill="1" layer="-1.00" shape="4422.869791,3983.833460 4421.781306,3984.151845 4419.670557,3977.079862 4432.711670,3973.214019 4434.822406,3980.286007 4422.869791,3983.833460"/>
    <poly id="1011803630" type="building" color="255,230,230" fill="1" layer="-1.00" shape="4437.773130,3995.075871 4439.976597,4002.473757 4438.535439,4002.891200 4427.941998,4006.029485 4425.738133,3998.642718 4437.773130,3995.075871"/>
    <poly id="1011803631" type="building" color="255,230,230" fill="1" layer="-1.00" shape="4416.169484,3969.815101 4430.832211,3965.471288 4433.109263,3973.105385 4432.711670,3973.214019 4419.670557,3977.079862 4418.446553,3977.449192 4416.169484,3969.815101"/>
    <poly id="1012049526" type="building" color="255,230,230" fill="1" layer="-1.00" shape="3885.361721,3776.905381 3885.383602,3782.514136 3897.051310,3782.482972 3897.029441,3776.874217 3885.361721,3776.905381"/>
    <poly id="1012049527" type="building" color="255,230,230" fill="1" layer="-1.00" shape="3897.136808,3808.634338 3897.156133,3815.177672 3885.495914,3815.209090 3885.468769,3808.676613 3897.136808,3808.634338"/>
    <poly id="1012049528" type="building" color="255,230,230" fill="1" layer="-1.00" shape="3897.117098,3802.102117 3897.136808,3808.634338 3885.468769,3808.676613 3885.449430,3802.133279 3897.117098,3802.102117"/>
    <poly id="1012049529" type="building" color="255,230,230" fill="1" layer="-1.00" shape="3897.097771,3795.558783 3897.117098,3802.102117 3885.449430,3802.133279 3885.430090,3795.589946 3897.097771,3795.558783"/>
    <poly id="1012049530" type="building" color="255,230,230" fill="1" layer="-1.00" shape="3897.071022,3789.015193 3897.097771,3795.558783 3885.430090,3795.589946 3885.402944,3789.057469 3897.071022,3789.015193"/>
    <poly id="1012049531" type="building" color="255,230,230" fill="1" layer="-1.00" shape="3850.753931,3810.972201 3850.752809,3816.602414 3863.050553,3816.615185 3863.058725,3810.996342 3850.753931,3810.972201"/>
    <poly id="1012049532" type="building" color="255,230,230" fill="1" layer="-1.00" shape="3850.762091,3805.353358 3850.753931,3810.972201 3863.058725,3810.996342 3863.059859,3805.366129 3850.762091,3805.353358"/>
    <poly id="1012049533" type="building" color="255,230,230" fill="1" layer="-1.00" shape="3850.763212,3799.723145 3850.762091,3805.353358 3863.059859,3805.366129 3863.068031,3799.747285 3850.763212,3799.723145"/>
    <poly id="1012049534" type="building" color="255,230,230" fill="1" layer="-1.00" shape="3850.771755,3794.093189 3850.763212,3799.723145 3863.068031,3799.747285 3863.069164,3794.117072 3850.771755,3794.093189"/>
    <poly id="1012049535" type="building" color="255,230,230" fill="1" layer="-1.00" shape="3850.772492,3788.474090 3850.771755,3794.093189 3863.069164,3794.117072 3863.077718,3788.487115 3850.772492,3788.474090"/>
    <poly id="1012049536" type="building" color="255,230,230" fill="1" layer="-1.00" shape="3850.773611,3782.843877 3850.772492,3788.474090 3863.077718,3788.487115 3863.078466,3782.868016 3850.773611,3782.843877"/>
    <poly id="1012049537" type="building" color="255,230,230" fill="1" layer="-1.00" shape="3850.782152,3777.213921 3850.773611,3782.843877 3863.078466,3782.868016 3863.079597,3777.237803 3850.782152,3777.213921"/>
    <poly id="1012049538" type="building" color="255,230,230" fill="1" layer="-1.00" shape="3815.085205,3811.410257 3815.226671,3817.000880 3827.855066,3816.691177 3827.713611,3811.100552 3815.085205,3811.410257"/>
    <poly id="1012049539" type="building" color="255,230,230" fill="1" layer="-1.00" shape="3814.943738,3805.819633 3815.085205,3811.410257 3827.713611,3811.100552 3827.572156,3805.509929 3814.943738,3805.819633"/>
    <poly id="1012049540" type="building" color="255,230,230" fill="1" layer="-1.00" shape="3814.809691,3800.229266 3814.943738,3805.819633 3827.572156,3805.509929 3827.438123,3799.919561 3814.809691,3800.229266"/>
    <poly id="1012049541" type="building" color="255,230,230" fill="1" layer="-1.00" shape="3814.668223,3794.638643 3814.809691,3800.229266 3827.438123,3799.919561 3827.296666,3794.328937 3814.668223,3794.638643"/>
    <poly id="1012049542" type="building" color="255,230,230" fill="1" layer="-1.00" shape="3814.526753,3789.048020 3814.668223,3794.638643 3827.296666,3794.328937 3827.155208,3788.738313 3814.526753,3789.048020"/>
    <poly id="1012049543" type="building" color="255,230,230" fill="1" layer="-1.00" shape="3826.853455,3776.810908 3826.700198,3770.485497 3814.071702,3770.795206 3814.232396,3777.120872 3826.853455,3776.810908"/>
    <poly id="1012049544" type="building" color="255,230,230" fill="1" layer="-1.00" shape="3827.014134,3783.136576 3826.853455,3776.810908 3814.232396,3777.120872 3814.385282,3783.457397 3827.014134,3783.136576"/>
    <poly id="1012049545" type="building" color="255,230,230" fill="1" layer="-1.00" shape="3780.841812,3812.320537 3780.944668,3817.954333 3793.532491,3817.743297 3793.430032,3812.098387 3780.841812,3812.320537"/>
    <poly id="1012049546" type="building" color="255,230,230" fill="1" layer="-1.00" shape="3780.739339,3806.675627 3780.841812,3812.320537 3793.430032,3812.098387 3793.327571,3806.453476 3780.739339,3806.675627"/>
    <poly id="1012049547" type="building" color="255,230,230" fill="1" layer="-1.00" shape="3780.644287,3801.030974 3780.739339,3806.675627 3793.327571,3806.453476 3793.232532,3800.808822 3780.644287,3801.030974"/>
    <poly id="1012049548" type="building" color="255,230,230" fill="1" layer="-1.00" shape="3780.541813,3795.386064 3780.644287,3801.030974 3793.232532,3800.808822 3793.130070,3795.163912 3780.541813,3795.386064"/>
    <poly id="1012049549" type="building" color="255,230,230" fill="1" layer="-1.00" shape="3780.446760,3789.741410 3780.541813,3795.386064 3793.130070,3795.163912 3793.035029,3789.519257 3780.446760,3789.741410"/>
    <poly id="1012049550" type="building" color="255,230,230" fill="1" layer="-1.00" shape="3780.344284,3784.096500 3780.446760,3789.741410 3793.035029,3789.519257 3792.932566,3783.874347 3780.344284,3784.096500"/>
    <poly id="1012049551" type="building" color="255,230,230" fill="1" layer="-1.00" shape="3780.229621,3777.727917 3780.344284,3784.096500 3792.932566,3783.874347 3792.817533,3777.516877 3780.229621,3777.727917"/>
    <poly id="1012049552" type="building" color="255,230,230" fill="1" layer="-1.00" shape="4554.041010,4218.628221 4547.151338,4219.747051 4549.453179,4233.735632 4556.350256,4232.617062 4554.041010,4218.628221"/>
    <poly id="1012049553" type="building" color="255,230,230" fill="1" layer="-1.00" shape="4547.151338,4219.747051 4540.291356,4220.866917 4542.593212,4234.855495 4549.453179,4233.735632 4547.151338,4219.747051"/>
    <poly id="1012049554" type="building" color="255,230,230" fill="1" layer="-1.00" shape="4567.686390,4216.397072 4560.893577,4217.508114 4562.913288,4229.773358 4569.706087,4228.662319 4567.686390,4216.397072"/>
    <poly id="1012049555" type="building" color="255,230,230" fill="1" layer="-1.00" shape="4569.706087,4228.662319 4569.934095,4230.016595 4577.660753,4228.759886 4575.413450,4215.129245 4567.686390,4216.397072 4569.706087,4228.662319"/>
    <poly id="1012049556" type="building" color="255,230,230" fill="1" layer="-1.00" shape="4540.291356,4220.866917 4540.267444,4220.699183 4532.144363,4222.031228 4534.470151,4236.187536 4542.593212,4234.855495 4540.291356,4220.866917"/>
    <poly id="1012049557" type="building" color="255,230,230" fill="1" layer="-1.00" shape="4556.350256,4232.617062 4563.195386,4231.496701 4562.913288,4229.773358 4560.893577,4217.508114 4554.041010,4218.628221 4556.350256,4232.617062"/>
    <poly id="1012049558" type="building" color="255,230,230" fill="1" layer="-1.00" shape="4502.301463,4145.711850 4495.655312,4147.306517 4492.314358,4133.493399 4498.967945,4131.898985 4502.301463,4145.711850"/>
    <poly id="1012049559" type="building" color="255,230,230" fill="1" layer="-1.00" shape="4495.655312,4147.306517 4488.701798,4148.979564 4485.646587,4136.355815 4485.361213,4135.155337 4492.314358,4133.493399 4495.655312,4147.306517"/>
    <poly id="1012049560" type="building" color="255,230,230" fill="1" layer="-1.00" shape="4512.839337,4129.797918 4519.605416,4128.174042 4522.764294,4141.235360 4515.990807,4142.858975 4512.839337,4129.797918"/>
    <poly id="1012049561" type="building" color="255,230,230" fill="1" layer="-1.00" shape="4515.990807,4142.858975 4509.224362,4144.493968 4509.119857,4144.078647 4506.065841,4131.421545 4512.839337,4129.797918 4515.990807,4142.858975"/>
    <poly id="1012049562" type="building" color="255,230,230" fill="1" layer="-1.00" shape="4526.378921,4126.550431 4526.001969,4124.990712 4533.584724,4123.172598 4536.711085,4136.099274 4529.120924,4137.917126 4526.378921,4126.550431"/>
    <poly id="1012049563" type="building" color="255,230,230" fill="1" layer="-1.00" shape="4498.967945,4131.898985 4505.786738,4130.254664 4506.065841,4131.421545 4509.119857,4144.078647 4502.301463,4145.711850 4498.967945,4131.898985"/>
    <poly id="1012049564" type="building" color="255,230,230" fill="1" layer="-1.00" shape="4488.701798,4148.979564 4488.844291,4149.585360 4482.115741,4151.199443 4478.918023,4137.969902 4485.646587,4136.355815 4488.701798,4148.979564"/>
    <poly id="1012049565" type="building" color="255,230,230" fill="1" layer="-1.00" shape="4482.115741,4151.199443 4482.356475,4152.186961 4474.436725,4154.082487 4470.997870,4139.876548 4478.918023,4137.969902 4482.115741,4151.199443"/>
    <poly id="1012049566" type="building" color="255,230,230" fill="1" layer="-1.00" shape="4519.605416,4128.174042 4526.378921,4126.550431 4529.120924,4137.917126 4529.530363,4139.611496 4522.764294,4141.235360 4519.605416,4128.174042"/>
    <poly id="1012049567" type="building" color="255,230,230" fill="1" layer="-1.00" shape="4672.033299,4083.049839 4678.983492,4081.477035 4682.201932,4095.597599 4675.251754,4097.170398 4672.033299,4083.049839"/>
    <poly id="1012049568" type="building" color="255,230,230" fill="1" layer="-1.00" shape="4675.251754,4097.170398 4668.151605,4098.782515 4664.933134,4084.661960 4672.033299,4083.049839 4675.251754,4097.170398"/>
    <poly id="1012049569" type="building" color="255,230,230" fill="1" layer="-1.00" shape="4668.151605,4098.782515 4660.939364,4100.413010 4658.295129,4088.804830 4657.720876,4086.292460 4664.933134,4084.661960 4668.151605,4098.782515"/>
    <poly id="1012049570" type="building" color="255,230,230" fill="1" layer="-1.00" shape="4654.350608,4103.778694 4647.333269,4105.360325 4647.262030,4105.057425 4644.173075,4091.486600 4644.056045,4091.004080 4651.073786,4089.411331 4651.300036,4090.387228 4654.350608,4103.778694"/>
    <poly id="1012049571" type="building" color="255,230,230" fill="1" layer="-1.00" shape="4647.262030,4105.057425 4640.094720,4106.678375 4636.997942,4093.118412 4644.173075,4091.486600 4647.262030,4105.057425"/>
    <poly id="1012049572" type="building" color="255,230,230" fill="1" layer="-1.00" shape="4634.827140,4107.085556 4632.902423,4107.519573 4629.980596,4094.700064 4636.997942,4093.118412 4640.094720,4106.678375 4635.001721,4107.837121 4634.827140,4107.085556"/>
    <poly id="1012049573" type="building" color="255,230,230" fill="1" layer="-1.00" shape="4632.902423,4107.519573 4628.970579,4108.407006 4628.860971,4107.924743 4626.696448,4108.417214 4623.658733,4095.081848 4629.755113,4093.701940 4629.980596,4094.700064 4632.902423,4107.519573"/>
    <poly id="1012049574" type="building" color="255,230,230" fill="1" layer="-1.00" shape="4626.696448,4108.417214 4620.083364,4109.912743 4617.045635,4096.577381 4623.658733,4095.081848 4626.696448,4108.417214"/>