<?xml version="1.0" encoding="UTF-8"?>

<!-- generated on 12/17/25 20:23:40 by Eclipse SUMO polyconvert Version 1.5.0
<configuration xmlns:xsi="http://www.w3.org/2001/XMLSchema-instance" xsi:noNamespaceSchemaLocation="http://sumo.dlr.de/xsd/polyconvertConfiguration.xsd">

    <input>
        <net-file value="freising.net.xml"/>
        <osm-files value="freising_raw.osm"/>
    </input>

    <output>
        <output-file value="freising.poly.xml"/>
    </output>

    <processing>
        <poi-layer-offset value="5"/>
    </processing>

</configuration>
-->

<additional xmlns:xsi="http://www.w3.org/2001/XMLSchema-instance" xsi:noNamespaceSchemaLocation="http://sumo.dlr.de/xsd/additional_file.xsd">
    <location netOffset="-695070.29,-5356823.08" convBoundary="-0.00,0.00,14933.41,13220.28" origBoundary="11.634818,48.332921,11.835566,48.451640" projParameter="+proj=utm +zone=32 +ellps=WGS84 +datum=WGS84 +units=m +no_defs"/>

    <poly id="1000439369" type="amenity" color="237,199,199" fill="1" layer="-1.00" shape="6919.447456,7454.378149 6918.085884,7451.414081 6919.656030,7450.813496 6921.011388,7453.743960 6919.447456,7454.378149"/>
    <poly id="1000439369#1" type="building" color="255,230,230" fill="1" layer="-1.00" shape="6919.447456,7454.378149 6918.085884,7451.414081 6919.656030,7450.813496 6921.011388,7453.743960 6919.447456,7454.378149"/>
    <poly id="1000449008" type="amenity" color="237,199,199" fill="1" layer="-1.00" shape="7641.818280,6577.029391 7643.434156,6575.573761 7646.057531,6578.482982 7644.449455,6579.927762 7641.818280,6577.029391"/>
    <poly id="1000449008#1" type="building" color="255,230,230" fill="1" layer="-1.00" shape="7641.818280,6577.029391 7643.434156,6575.573761 7646.057531,6578.482982 7644.449455,6579.927762 7641.818280,6577.029391"/>
    <poly id="1000452431" type="amenity" color="237,199,199" fill="1" layer="-1.00" shape="8822.032401,6407.011129 8820.455320,6406.965533 8820.308641,6411.867798 8821.885721,6411.913395 8822.032401,6407.011129"/>
    <poly id="1000452431#1" type="building" color="255,230,230" fill="1" layer="-1.00" shape="8822.032401,6407.011129 8820.455320,6406.965533 8820.308641,6411.867798 8821.885721,6411.913395 8822.032401,6407.011129"/>
    <poly id="1006386368" type="building" color="255,230,230" fill="1" layer="-1.00" shape="7845.045278,7606.439640 7847.084031,7607.447409 7849.049970,7608.419188 7846.079227,7614.399884 7843.097629,7615.717513 7841.473020,7612.042698 7843.024862,7610.506948 7845.045278,7606.439640"/>
    <poly id="1006386383" type="building" color="255,230,230" fill="1" layer="-1.00" shape="7743.180773,7517.751844 7744.396069,7515.681001 7745.232262,7514.264276 7751.126331,7517.702385 7749.074839,7521.189950 7743.180773,7517.751844"/>
    <poly id="1006386388" type="building" color="255,230,230" fill="1" layer="-1.00" shape="7728.412800,7547.135638 7731.483173,7542.716386 7736.234083,7546.002287 7733.156306,7550.421271 7730.784554,7548.778454 7728.412800,7547.135638"/>
    <poly id="1010641686" type="building" color="255,230,230" fill="1" layer="-1.00" shape="5935.886048,7380.101045 5938.253083,7372.072785 5944.787749,7373.984889 5942.420311,7382.024260 5935.886048,7380.101045"/>
    <poly id="1013801500" type="building" color="255,230,230" fill="1" layer="-1.00" shape="8988.449322,6134.214917 8988.692595,6132.810389 8990.371993,6133.104531 8990.128719,6134.509059 8988.449322,6134.214917"/>
    <poly id="1013801501" type="building" color="255,230,230" fill="1" layer="-1.00" shape="8991.048446,6134.697960 8991.291720,6133.293432 8992.963715,6133.587309 8992.720441,6134.991837 8991.048446,6134.697960"/>
    <poly id="1017330773" type="building" color="255,230,230" fill="1" layer="-1.00" shape="9102.022135,8459.705159 9106.540741,8455.004953 9115.715979,8463.770901 9111.197772,8468.459987 9105.775745,8463.279088 9102.022135,8459.705159"/>
    <poly id="1017346503" type="building" color="255,230,230" fill="1" layer="-1.00" shape="8632.344435,8050.949692 8630.143168,8049.935778 8624.457392,8047.327662 8621.652596,8053.414116 8620.945049,8054.957758 8619.410563,8058.274442 8618.391239,8060.452313 8617.652494,8062.039346 8628.023791,8066.841250 8638.861083,8071.871366 8640.844348,8067.613795 8641.486305,8066.245848 8642.161060,8064.790056 8644.083338,8060.786242 8648.836044,8050.808189 8649.557051,8050.745088 8646.282290,8030.540890 8645.697192,8028.060515 8636.415916,8030.241785 8637.001018,8032.722160 8637.531345,8035.901643 8638.881653,8043.684310 8639.126509,8045.117526 8640.027637,8048.288086 8633.969232,8060.990128 8628.816484,8058.601479 8632.344435,8050.949692"/>
    <poly id="1017346509" type="building" color="255,230,230" fill="1" layer="-1.00" shape="8641.486305,8066.245848 8642.161060,8064.790056 8644.083338,8060.786242 8646.946418,8062.146677 8645.182530,8065.866851 8644.356384,8067.617662 8642.819342,8066.883575 8641.486305,8066.245848"/>
    <poly id="1017346510" type="building" color="255,230,230" fill="1" layer="-1.00" shape="8644.083338,8060.786242 8648.836044,8050.808189 8652.655387,8059.369589 8650.537118,8063.878251 8646.946418,8062.146677 8644.083338,8060.786242"/>
    <poly id="1017346514" type="building" color="255,230,230" fill="1" layer="-1.00" shape="8643.300242,8025.069864 8643.258386,8023.554920 8643.218129,8021.995521 8658.623794,8021.559046 8658.665646,8023.073990 8658.712900,8024.644769 8643.300242,8025.069864"/>
    <poly id="1017346525" type="building" color="255,230,230" fill="1" layer="-1.00" shape="8620.797403,8043.813098 8614.994728,8039.097556 8627.499700,8033.604658 8629.849327,8038.529912 8620.797403,8043.813098"/>
    <poly id="1017346526" type="building" color="255,230,230" fill="1" layer="-1.00" shape="8629.849327,8038.529912 8637.531345,8035.901643 8637.001018,8032.722160 8636.415916,8030.241785 8627.499700,8033.604658 8629.849327,8038.529912"/>
    <poly id="1017346544" type="building" color="255,230,230" fill="1" layer="-1.00" shape="8579.098114,7991.179936 8577.802922,7987.839430 8580.432535,7986.832254 8581.727725,7990.172761 8579.098114,7991.179936"/>
    <poly id="1017346553" type="amenity" color="237,199,199" fill="1" layer="-1.00" shape="8583.143916,8023.129805 8583.892851,8021.465236 8599.060618,8028.264519 8598.311679,8029.929086 8590.830205,8026.566506 8583.143916,8023.129805"/>
    <poly id="1017346553#1" type="building" color="255,230,230" fill="1" layer="-1.00" shape="8583.143916,8023.129805 8583.892851,8021.465236 8599.060618,8028.264519 8598.311679,8029.929086 8590.830205,8026.566506 8583.143916,8023.129805"/>
    <poly id="1017366313" type="building" color="255,230,230" fill="1" layer="-1.00" shape="8572.067708,8035.050620 8576.410271,8037.098503 8575.070988,8039.932573 8570.728426,8037.884691 8571.425765,8036.418574 8572.067708,8035.050620"/>
    <poly id="1017366314" type="building" color="255,230,230" fill="1" layer="-1.00" shape="8552.913498,8036.498811 8554.085785,8033.981453 8555.616244,8034.693023 8554.443957,8037.210380 8552.913498,8036.498811"/>
    <poly id="1017366315" type="building" color="255,230,230" fill="1" layer="-1.00" shape="8537.304472,8029.194154 8538.506753,8026.666743 8539.913411,8027.318218 8538.746932,8029.880300 8537.304472,8029.194154"/>
    <poly id="1017366317" type="building" color="255,230,230" fill="1" layer="-1.00" shape="8527.194135,8015.476978 8530.142029,8009.117420 8535.106051,8011.399037 8532.216155,8017.794062 8529.519238,8016.550941 8527.194135,8015.476978"/>
    <poly id="1017366330" type="building" color="255,230,230" fill="1" layer="-1.00" shape="8498.059669,7993.809544 8500.266782,7994.868127 8502.095474,7995.735063 8504.409828,7990.921807 8500.381420,7988.996553 8498.059669,7993.809544"/>
    <poly id="1017366333" type="building" color="255,230,230" fill="1" layer="-1.00" shape="8471.916577,7991.790863 8473.622267,7992.575473 8475.007139,7993.215020 8478.091964,7986.548768 8475.001400,7985.124609 8471.916577,7991.790863"/>
    <poly id="1017366361" type="building" color="255,230,230" fill="1" layer="-1.00" shape="8572.918916,7965.808069 8570.436696,7958.797103 8575.757355,7956.929619 8576.387762,7956.707457 8577.000064,7958.432082 8575.274045,7959.037737 8577.143958,7964.324080 8572.918916,7965.808069"/>
    <poly id="1017366362" type="building" color="255,230,230" fill="1" layer="-1.00" shape="8582.215701,7968.557047 8588.525568,7966.380157 8590.399270,7971.766796 8584.089408,7973.943684 8582.215701,7968.557047"/>
    <poly id="1017366368" type="building" color="255,230,230" fill="1" layer="-1.00" shape="8547.271631,7954.937683 8549.783647,7953.904010 8552.619067,7952.737294 8555.550729,7959.820044 8550.210698,7962.020696 8549.003907,7959.106247 8547.271631,7954.937683"/>
    <poly id="1017366370" type="building" color="255,230,230" fill="1" layer="-1.00" shape="8559.653108,7949.584858 8561.709054,7955.055933 8562.709621,7957.729280 8568.395076,7955.607824 8567.164073,7952.336398 8565.338569,7947.463399 8559.653108,7949.584858"/>
    <poly id="1017366374" type="building" color="255,230,230" fill="1" layer="-1.00" shape="8500.284906,7961.573184 8501.253910,7961.207384 8507.180933,7958.961009 8512.371558,7956.999770 8515.153875,7964.321951 8511.675263,7965.654753 8514.109717,7972.140947 8514.776845,7973.989944 8516.779423,7979.503596 8506.150409,7976.918293 8505.480696,7975.347409 8503.959807,7971.275480 8503.052835,7968.883713 8500.284906,7961.573184"/>
    <poly id="1017366390" type="building" color="255,230,230" fill="1" layer="-1.00" shape="8558.324848,7979.739093 8550.363612,7982.713539 8548.381203,7983.443526 8546.609705,7978.717141 8544.168290,7972.219552 8543.120310,7969.422094 8545.103121,7968.680991 8553.071374,7965.717917 8558.324848,7979.739093"/>
    <poly id="1017366394" type="building" color="255,230,230" fill="1" layer="-1.00" shape="8538.860406,7962.391773 8540.314820,7961.921013 8549.003907,7959.106247 8550.210698,7962.020696 8541.686627,7964.986057 8539.924012,7965.579279 8538.860406,7962.391773"/>
    <poly id="1017381845" type="amenity" color="237,199,199" fill="1" layer="-1.00" shape="7537.547136,6034.102861 7536.531616,6029.748888 7537.906821,6029.430809 7539.170191,6029.130990 7540.185312,6033.496078 7537.547136,6034.102861"/>
    <poly id="1017381845#1" type="building" color="255,230,230" fill="1" layer="-1.00" shape="7537.547136,6034.102861 7536.531616,6029.748888 7537.906821,6029.430809 7539.170191,6029.130990 7540.185312,6033.496078 7537.547136,6034.102861"/>
    <poly id="1017916015" type="building" color="255,230,230" fill="1" layer="-1.00" shape="7455.715809,7834.947343 7452.879023,7832.219721 7451.260172,7830.659569 7447.390025,7834.660882 7451.853062,7838.948918 7455.715809,7834.947343"/>
    <poly id="1017916022" type="building" color="255,230,230" fill="1" layer="-1.00" shape="7457.636959,7833.647260 7464.633960,7825.295364 7471.325199,7830.887152 7471.944149,7831.398913 7473.987447,7833.107781 7476.663698,7835.351168 7484.167711,7841.628584 7479.540084,7847.127344 7477.125501,7850.001096 7473.254572,7846.769115 7469.621096,7843.734803 7464.328591,7839.227925 7460.903756,7836.367998 7457.636959,7833.647260"/>
    <poly id="1017916031" type="building" color="255,230,230" fill="1" layer="-1.00" shape="7493.514445,7863.929552 7496.361924,7864.699037 7494.876399,7870.187711 7492.028525,7869.429341 7492.455755,7867.842171 7493.514445,7863.929552"/>
    <poly id="1017916059" type="building" color="255,230,230" fill="1" layer="-1.00" shape="7428.361593,7857.883888 7430.201661,7855.534860 7431.867044,7856.829596 7429.975174,7859.176772 7428.361593,7857.883888"/>
    <poly id="1017916060" type="building" color="255,230,230" fill="1" layer="-1.00" shape="7411.655260,7857.186689 7414.211750,7854.073166 7418.149704,7857.296371 7415.593611,7860.398779 7411.655260,7857.186689"/>
    <poly id="1017916068" type="building" color="255,230,230" fill="1" layer="-1.00" shape="7422.780021,7881.576375 7425.584545,7874.632537 7427.250554,7870.519052 7430.895637,7871.984694 7429.229625,7876.098178 7426.417697,7883.041750 7422.780021,7881.576375"/>
    <poly id="1017916071" type="building" color="255,230,230" fill="1" layer="-1.00" shape="7429.754955,7881.302634 7432.840536,7882.458951 7431.832985,7885.149318 7430.817637,7887.850535 7427.732058,7886.694219 7429.754955,7881.302634"/>
    <poly id="1017916076" type="building" color="255,230,230" fill="1" layer="-1.00" shape="7448.916215,7880.896933 7451.054950,7874.752785 7453.909283,7875.745055 7451.770545,7881.889202 7450.299773,7881.369252 7448.916215,7880.896933"/>
    <poly id="1017916079" type="building" color="255,230,230" fill="1" layer="-1.00" shape="7464.876813,7886.285893 7465.306215,7883.808553 7466.941132,7884.089557 7466.511729,7886.566896 7464.876813,7886.285893"/>
    <poly id="1017949454" type="building" color="255,230,230" fill="1" layer="-1.00" shape="7375.059278,7884.745201 7378.060227,7878.108820 7379.949103,7878.955275 7381.662755,7879.728702 7380.712879,7881.842478 7378.669203,7886.365346 7376.619905,7885.446391 7375.059278,7884.745201"/>
    <poly id="1017949459" type="building" color="255,230,230" fill="1" layer="-1.00" shape="7372.705471,7902.510514 7380.677700,7906.467628 7379.256810,7909.321283 7377.660805,7912.513651 7369.688980,7908.545427 7372.705471,7902.510514"/>
    <poly id="1017949464" type="building" color="255,230,230" fill="1" layer="-1.00" shape="7339.072598,7926.992478 7338.018612,7931.606354 7336.315372,7939.045820 7342.055227,7940.363679 7344.589596,7929.570976 7339.072598,7926.992478"/>
    <poly id="1017949476" type="building" color="255,230,230" fill="1" layer="-1.00" shape="7380.712879,7881.842478 7383.928351,7883.303867 7386.801172,7884.608349 7384.992749,7888.560962 7383.819176,7888.018265 7383.232890,7889.288172 7381.745474,7888.611853 7378.340377,7887.065793 7378.669203,7886.365346 7380.712879,7881.842478"/>
    <poly id="1017949490" type="building" color="255,230,230" fill="1" layer="-1.00" shape="7400.544466,7909.124941 7397.134329,7908.135092 7394.450462,7907.349246 7392.843619,7910.429943 7391.021880,7913.925827 7395.397871,7915.050339 7398.951785,7915.956301 7400.544466,7909.124941"/>
    <poly id="1017949493" type="building" color="255,230,230" fill="1" layer="-1.00" shape="7364.804047,7969.363811 7363.979305,7974.197308 7369.849434,7975.186010 7370.064510,7973.936223 7370.672593,7970.396969 7364.804047,7969.363811"/>
    <poly id="1017949498" type="building" color="255,230,230" fill="1" layer="-1.00" shape="7359.965094,7994.885621 7365.592549,7996.444309 7367.207076,7996.880350 7366.686971,7998.786922 7366.098928,8000.935884 7358.848756,7998.963119 7359.965094,7994.885621"/>
    <poly id="1017949500" type="building" color="255,230,230" fill="1" layer="-1.00" shape="7351.181417,8022.147140 7352.506573,8017.409417 7359.168288,8019.260997 7358.429576,8021.894212 7357.835726,8023.998455 7351.181417,8022.147140"/>
    <poly id="1017949507" type="building" color="255,230,230" fill="1" layer="-1.00" shape="7341.280080,8050.414777 7342.181220,8047.175321 7342.486931,8046.084564 7348.891994,8047.860197 7348.213032,8050.272986 7347.677738,8052.190144 7341.280080,8050.414777"/>
    <poly id="1017949514" type="building" color="255,230,230" fill="1" layer="-1.00" shape="7292.489493,8023.834071 7293.808640,8022.167467 7294.708731,8021.031170 7302.095738,8026.847921 7306.324498,8021.512836 7307.753622,8021.953366 7309.116542,8022.380403 7302.009361,8031.340571 7292.489493,8023.834071"/>
    <poly id="1018214955" type="building" color="255,230,230" fill="1" layer="-1.00" shape="6403.483407,6387.815617 6405.706642,6387.405007 6403.791753,6377.054759 6401.575916,6377.465633 6403.483407,6387.815617"/>
    <poly id="1018214956" type="building" color="255,230,230" fill="1" layer="-1.00" shape="6424.696642,6412.171920 6427.761055,6411.657685 6428.109497,6413.739863 6425.045480,6414.242983 6424.696642,6412.171920"/>
    <poly id="1018214957" type="building" color="255,230,230" fill="1" layer="-1.00" shape="6444.323197,6410.688527 6451.948954,6409.457354 6452.429812,6412.401091 6444.796657,6413.632000 6444.323197,6410.688527"/>
    <poly id="1018214958" type="building" color="255,230,230" fill="1" layer="-1.00" shape="6477.265988,6391.551265 6480.451909,6391.163785 6480.795275,6394.013613 6477.609750,6394.389979 6477.265988,6391.551265"/>
    <poly id="1018214959" type="building" color="255,230,230" fill="1" layer="-1.00" shape="6476.587508,6395.833647 6480.369158,6395.367197 6480.708678,6398.116737 6476.927030,6398.583187 6476.587508,6395.833647"/>
    <poly id="1018214960" type="building" color="255,230,230" fill="1" layer="-1.00" shape="6472.270967,6373.613512 6475.757333,6373.114303 6476.131998,6375.709301 6472.645634,6376.208510 6472.270967,6373.613512"/>
    <poly id="1018214961" type="building" color="255,230,230" fill="1" layer="-1.00" shape="6482.829411,6390.792074 6485.043274,6390.436802 6485.402156,6392.641763 6483.180891,6392.996772 6482.829411,6390.792074"/>
    <poly id="1018214962" type="building" color="255,230,230" fill="1" layer="-1.00" shape="6471.830570,6383.290271 6474.758604,6382.860235 6475.728179,6389.360028 6472.807551,6389.790327 6471.830570,6383.290271"/>
    <poly id="1018214963" type="building" color="255,230,230" fill="1" layer="-1.00" shape="6526.350055,6376.204168 6528.057415,6375.919922 6528.675396,6379.591860 6526.960635,6379.875842 6526.350055,6376.204168"/>
    <poly id="1018214964" type="building" color="255,230,230" fill="1" layer="-1.00" shape="6473.233609,6344.036347 6476.129288,6343.683056 6476.542916,6347.058393 6473.647239,6347.411685 6473.233609,6344.036347"/>
    <poly id="1018214965" type="building" color="255,230,230" fill="1" layer="-1.00" shape="6482.724291,6335.382426 6485.607146,6334.973043 6485.953493,6337.322221 6483.070244,6337.742717 6482.724291,6335.382426"/>
    <poly id="1018214966" type="building" color="255,230,230" fill="1" layer="-1.00" shape="6480.343776,6324.581601 6482.175802,6324.335157 6484.014835,6324.100091 6483.011533,6316.464049 6479.333068,6316.945298 6480.343776,6324.581601"/>
    <poly id="1018214967" type="building" color="255,230,230" fill="1" layer="-1.00" shape="6446.934268,6321.602238 6450.069199,6321.190670 6450.354078,6323.392997 6447.226550,6323.804828 6446.934268,6321.602238"/>
    <poly id="1018214968" type="building" color="255,230,230" fill="1" layer="-1.00" shape="6434.531970,6321.884679 6440.240337,6321.219618 6440.729176,6325.398834 6435.028215,6326.064158 6434.531970,6321.884679"/>
    <poly id="1018214969" type="building" color="255,230,230" fill="1" layer="-1.00" shape="6431.219119,6325.216571 6433.133751,6324.939664 6433.468872,6327.188287 6431.553845,6327.476308 6431.219119,6325.216571"/>
    <poly id="1018214970" type="building" color="255,230,230" fill="1" layer="-1.00" shape="6432.161916,6331.637506 6431.974134,6330.039540 6434.237067,6329.763886 6434.424848,6331.361852 6432.161916,6331.637506"/>
    <poly id="1018214971" type="building" color="255,230,230" fill="1" layer="-1.00" shape="6437.590500,6341.344841 6437.402721,6339.746874 6439.665255,6339.482336 6439.853034,6341.080303 6439.041842,6341.173874 6437.590500,6341.344841"/>
    <poly id="1018214972" type="building" color="255,230,230" fill="1" layer="-1.00" shape="6433.406104,6343.132355 6433.210921,6341.534125 6435.480857,6341.269849 6435.668637,6342.867815 6433.406104,6343.132355"/>
    <poly id="1018214973" type="building" color="255,230,230" fill="1" layer="-1.00" shape="6428.387040,6340.461293 6428.277418,6339.166559 6431.154735,6338.912743 6431.271758,6340.207741 6428.387040,6340.461293"/>
    <poly id="1018214974" type="building" color="255,230,230" fill="1" layer="-1.00" shape="6428.655975,6341.027249 6431.813495,6340.605346 6432.172589,6343.222042 6429.014675,6343.655058 6428.655975,6341.027249"/>
    <poly id="1018214975" type="building" color="255,230,230" fill="1" layer="-1.00" shape="6422.161345,6331.493461 6421.823954,6329.100096 6424.773426,6328.693050 6425.111211,6331.075302 6422.161345,6331.493461"/>
    <poly id="1018214976" type="building" color="255,230,230" fill="1" layer="-1.00" shape="6422.286948,6328.793843 6422.013120,6326.280330 6424.163045,6326.056295 6424.437267,6328.558694 6422.286948,6328.793843"/>
    <poly id="1018214977" type="building" color="255,230,230" fill="1" layer="-1.00" shape="6416.720775,6335.884780 6420.847702,6335.297026 6421.001842,6336.381912 6416.874916,6336.969666 6416.720775,6335.884780"/>
    <poly id="1018214978" type="building" color="255,230,230" fill="1" layer="-1.00" shape="6411.863018,6335.556329 6414.841305,6335.172558 6415.097480,6337.140176 6412.118799,6337.535060 6411.863018,6335.556329"/>
    <poly id="1018214979" type="building" color="255,230,230" fill="1" layer="-1.00" shape="6411.951364,6334.947434 6411.219553,6328.845585 6414.085229,6328.502323 6414.817037,6334.604172 6411.951364,6334.947434"/>
    <poly id="1018214980" type="building" color="255,230,230" fill="1" layer="-1.00" shape="6413.049557,6344.712261 6416.159500,6344.377682 6416.422079,6346.790644 6413.312138,6347.125222 6413.049557,6344.712261"/>
    <poly id="1018214981" type="building" color="255,230,230" fill="1" layer="-1.00" shape="6405.096017,6327.637557 6404.756470,6324.053431 6411.836226,6323.381443 6412.175769,6326.965571 6405.096017,6327.637557"/>
    <poly id="1018214982" type="building" color="255,230,230" fill="1" layer="-1.00" shape="6496.805146,6328.538665 6498.876810,6328.222852 6499.058174,6329.375477 6496.986510,6329.691290 6496.805146,6328.538665"/>
    <poly id="1018214983" type="building" color="255,230,230" fill="1" layer="-1.00" shape="6497.756151,6332.433869 6499.835612,6332.107206 6500.016975,6333.259831 6497.937515,6333.586494 6497.756151,6332.433869"/>
    <poly id="1018214984" type="building" color="255,230,230" fill="1" layer="-1.00" shape="6485.981732,6325.271689 6488.061194,6324.945021 6488.242561,6326.097645 6486.163099,6326.424313 6485.981732,6325.271689"/>
    <poly id="1018227057" type="building" color="255,230,230" fill="1" layer="-1.00" shape="6196.245232,6564.108400 6201.371622,6563.544858 6201.668819,6566.237233 6196.542037,6566.811888 6196.245232,6564.108400"/>
    <poly id="1018227058" type="building" color="255,230,230" fill="1" layer="-1.00" shape="6272.740817,6547.106440 6271.080497,6534.383918 6270.394378,6529.496656 6238.359122,6533.767008 6239.009047,6538.630723 6240.715031,6551.321470 6253.902484,6549.575388 6264.960347,6548.109786 6265.405260,6551.441702 6273.201713,6550.405541 6272.740817,6547.106440"/>
    <poly id="1018227074" type="building" color="255,230,230" fill="1" layer="-1.00" shape="6147.729551,6388.768755 6146.747977,6383.014183 6153.384060,6381.892144 6154.365627,6387.646717 6147.729551,6388.768755"/>
    <poly id="1018227083" type="building" color="255,230,230" fill="1" layer="-1.00" shape="6193.104575,6307.098530 6198.751422,6306.286381 6199.490948,6311.342441 6193.836309,6312.165440 6193.104575,6307.098530"/>
    <poly id="1018230937" type="building" color="255,230,230" fill="1" layer="-1.00" shape="6098.634600,6345.986660 6098.868373,6347.753160 6096.478056,6348.068937 6093.432794,6348.461623 6092.541226,6341.630855 6097.969409,6340.922128 6098.634600,6345.986660"/>
    <poly id="1018230947" type="amenity" color="237,199,199" fill="1" layer="-1.00" shape="6116.166522,6184.453507 6115.408667,6177.404926 6118.853360,6177.037549 6119.619009,6184.075279 6116.166522,6184.453507"/>
    <poly id="1018230947#1" type="building" color="255,230,230" fill="1" layer="-1.00" shape="6116.166522,6184.453507 6115.408667,6177.404926 6118.853360,6177.037549 6119.619009,6184.075279 6116.166522,6184.453507"/>
    <poly id="1018737303" type="building" color="255,230,230" fill="1" layer="-1.00" shape="7832.622436,7981.068043 7832.773475,7980.160946 7834.739541,7968.090572 7834.958302,7966.740776 7846.765587,7971.603754 7852.942258,7972.514914 7854.335320,7972.720601 7853.455081,7978.264266 7853.897879,7979.348425 7853.131428,7980.266865 7852.490727,7984.294556 7852.353689,7985.224410 7852.067038,7987.228334 7854.139317,7987.502860 7855.097756,7987.637341 7854.765979,7990.073646 7854.595594,7991.313893 7851.655531,8012.786029 7850.674897,8012.650754 7839.216097,8011.094167 7838.132258,8010.944070 7841.574423,7985.795375 7842.687867,7985.946533 7842.996878,7983.731975 7832.622436,7981.068043"/>
    <poly id="1018746616" type="building" color="255,230,230" fill="1" layer="-1.00" shape="7825.912221,8043.679380 7826.413243,8040.447910 7827.146394,8035.700200 7822.341829,8034.960609 7821.107664,8042.939790 7823.399140,8043.300052 7825.912221,8043.679380"/>
    <poly id="1018746617" type="building" color="255,230,230" fill="1" layer="-1.00" shape="7826.413243,8040.447910 7828.034098,8040.706262 7828.775049,8035.947703 7827.146394,8035.700200 7826.413243,8040.447910"/>
    <poly id="1018746621" type="building" color="255,230,230" fill="1" layer="-1.00" shape="7800.979729,8026.483871 7797.268304,8025.427344 7796.694898,8027.576796 7794.560428,8034.833800 7796.547151,8035.427958 7798.351656,8035.937695 7800.979729,8026.483871"/>
    <poly id="1018746630" type="building" color="255,230,230" fill="1" layer="-1.00" shape="7794.560428,8034.833800 7796.694898,8027.576796 7792.544242,8026.371007 7790.343973,8033.603400 7792.008673,8034.085874 7794.560428,8034.833800"/>
    <poly id="1018746634" type="building" color="255,230,230" fill="1" layer="-1.00" shape="7767.787456,8028.478099 7769.100137,8028.858938 7770.567027,8029.278683 7772.673856,8021.965041 7769.893883,8021.175571 7767.787456,8028.478099"/>
    <poly id="1018746645" type="building" color="255,230,230" fill="1" layer="-1.00" shape="7735.186599,8006.913221 7741.800250,8008.863690 7743.457163,8009.356998 7749.191148,8011.042297 7752.377497,8000.273066 7753.456007,7996.639397 7739.451424,7992.510312 7738.372922,7996.143984 7735.186599,8006.913221"/>
    <poly id="1018746649" type="building" color="255,230,230" fill="1" layer="-1.00" shape="7725.799353,8010.204977 7727.603076,8010.736919 7729.318793,8011.243456 7731.173971,8004.955709 7727.661530,8003.928608 7725.799353,8010.204977"/>
    <poly id="1018751685" type="building" color="255,230,230" fill="1" layer="-1.00" shape="7671.929309,7944.212554 7675.524235,7945.420619 7677.563023,7939.384246 7673.968094,7938.176180 7671.929309,7944.212554"/>
    <poly id="1018751692" type="building" color="255,230,230" fill="1" layer="-1.00" shape="7638.230169,7945.866715 7641.835952,7937.037601 7637.979533,7935.475232 7634.373755,7944.304348 7638.230169,7945.866715"/>
    <poly id="1018751698" type="building" color="255,230,230" fill="1" layer="-1.00" shape="7547.191208,7912.197268 7549.626627,7912.885277 7551.864227,7913.510573 7553.409401,7908.012916 7548.736377,7906.699609 7547.191208,7912.197268"/>
    <poly id="1018995120" type="building" color="255,230,230" fill="1" layer="-1.00" shape="7242.009689,8048.282375 7246.282752,8043.572003 7247.812135,8044.939726 7251.787943,8048.553654 7247.522676,8053.253172 7244.572137,8050.599487 7242.009689,8048.282375"/>
    <poly id="1018995125" type="building" color="255,230,230" fill="1" layer="-1.00" shape="7275.764790,8058.312367 7278.408193,8055.457841 7280.434190,8053.293460 7283.639602,8056.278982 7278.963596,8061.275394 7277.493028,8059.920890 7275.764790,8058.312367"/>
    <poly id="1018995133" type="building" color="255,230,230" fill="1" layer="-1.00" shape="7284.664982,8083.167605 7285.985302,8084.372080 7287.420449,8085.680810 7292.331942,8080.314462 7290.853983,8078.959690 7292.542865,8077.105987 7291.272757,8075.947816 7284.664982,8083.167605"/>
    <poly id="1018995138" type="building" color="255,230,230" fill="1" layer="-1.00" shape="7305.963826,8086.165103 7307.460962,8084.493732 7310.518009,8081.053081 7311.582882,8079.867032 7315.504189,8083.345525 7311.382666,8087.961108 7309.885132,8089.643592 7305.963826,8086.165103"/>
    <poly id="1018995143" type="building" color="255,230,230" fill="1" layer="-1.00" shape="7304.399370,8102.167011 7307.293496,8098.308801 7310.021616,8100.342534 7307.127489,8104.200742 7304.399370,8102.167011"/>
    <poly id="1020207433" type="building" color="255,230,230" fill="1" layer="-1.00" shape="8459.397824,8057.487180 8461.262972,8059.401464 8463.665439,8057.084078 8461.793290,8055.158413 8459.397824,8057.487180"/>
    <poly id="1020207435" type="building" color="255,230,230" fill="1" layer="-1.00" shape="8469.403454,8086.702059 8472.546269,8089.763941 8475.915660,8086.312837 8485.942529,8096.165437 8492.025168,8089.996389 8481.890091,8080.061993 8478.915879,8077.050676 8472.758044,8083.250421 8471.289933,8084.722242 8469.403454,8086.702059"/>
    <poly id="1020211774" type="building" color="255,230,230" fill="1" layer="-1.00" shape="8500.681162,8099.232224 8498.178814,8096.905543 8493.848552,8092.866211 8500.814131,8085.426894 8503.058069,8087.521727 8507.653345,8091.815410 8504.294344,8095.389280 8500.681162,8099.232224"/>
    <poly id="1020249771" type="building" color="255,230,230" fill="1" layer="-1.00" shape="8525.994762,8141.227188 8527.111082,8139.854021 8528.399335,8140.912984 8527.283414,8142.275036 8525.994762,8141.227188"/>
    <poly id="1020249779" type="building" color="255,230,230" fill="1" layer="-1.00" shape="8538.283418,8139.476548 8555.224055,8149.510989 8553.408620,8152.606154 8536.453988,8142.548959 8538.283418,8139.476548"/>
    <poly id="1020249787" type="building" color="255,230,230" fill="1" layer="-1.00" shape="8559.782490,8154.827191 8567.751860,8159.453639 8564.672933,8164.717901 8556.703968,8160.080345 8559.782490,8154.827191"/>