<?xml version="1.0" encoding="UTF-8"?>
<!-- generated on 2025-12-17 20:23:57.035327 by randomTrips.py v1_5_0+0000-3a3be608d2
  options: -n freising.net.xml -r freising.trips.xml -e 3600 -p 2
-->
<routes xmlns:xsi="http://www.w3.org/2001/XMLSchema-instance" xsi:noNamespaceSchemaLocation="http://sumo.dlr.de/xsd/routes_file.xsd">
    <trip id="0" depart="0.00" from="46759816#1" to="209376686#4"/>
    <trip id="1" depart="2.00" from="-5057350#4" to="22975742#7"/>
    <trip id="2" depart="4.00" from="49062695#5" to="4361799#3"/>
    <trip id="3" depart="6.00" from="-4319132#11" to="1091574004"/>
    <trip id="4" depart="8.00" from="4682987#2" to="-229452040#1"/>
    <trip id="5" depart="10.00" from="240817560" to="-1418716639#0"/>
    <trip id="6" depart="12.00" from="-4369494#2" to="-872644923"/>
    <trip id="7" depart="14.00" from="131188928#1" to="4363202#2"/>
    <trip id="8" depart="16.00" from="-51014855#1" to="-8040003#22"/>
    <trip id="9" depart="18.00" from="8040070#3" to="-975719908#1"/>
    <trip id="10" depart="20.00" from="23788022#0" to="294818976#8"/>
    <trip id="11" depart="22.00" from="977937527#0" to="975729610#0"/>
    <trip id="12" depart="24.00" from="-1079371849#2" to="799423563"/>
    <trip id="13" depart="26.00" from="5054598#0" to="1089727954#1"/>
    <trip id="14" depart="28.00" from="4446317#0" to="-22975741#5"/>
    <trip id="15" depart="30.00" from="883948826#0" to="-4332706#1"/>
    <trip id="16" depart="32.00" from="-8040533#1" to="-14834100#4"/>
    <trip id="17" depart="34.00" from="750656956#10" to="4050680#5"/>
    <trip id="18" depart="36.00" from="-362105377#1" to="33822007#0"/>
    <trip id="19" depart="38.00" from="-108956711#1" to="227020198"/>
    <trip id="20" depart="40.00" from="1083991421#10" to="-14830674#0"/>
    <trip id="21" depart="42.00" from="1149574063" to="-547126710"/>
    <trip id="22" depart="44.00" from="33470417#1" to="227935282"/>
    <trip id="23" depart="46.00" from="-377663241#0" to="-4756982#3"/>
    <trip id="24" depart="48.00" from="4683087#0" to="159515238#1"/>
    <trip id="25" depart="50.00" from="108956711#7" to="692442129"/>
    <trip id="26" depart="52.00" from="-35011527" to="4363209#1"/>
    <trip id="27" depart="54.00" from="-1095140056#0" to="-4332696#5"/>
    <trip id="28" depart="56.00" from="-209376684#1" to="-22908686#2"/>
    <trip id="29" depart="58.00" from="744567970#1" to="377663241#6"/>
    <trip id="30" depart="60.00" from="-239469312#1" to="4446204"/>
    <trip id="31" depart="62.00" from="-175702346#5" to="1155190569#5"/>
    <trip id="32" depart="64.00" from="130433772#11" to="38100615#9"/>
    <trip id="33" depart="66.00" from="-23788008" to="4050622"/>
    <trip id="34" depart="68.00" from="32385159#7" to="25076362"/>
    <trip id="35" depart="70.00" from="295231886#0" to="38100615#0"/>
    <trip id="36" depart="72.00" from="1079381028#0" to="-4440377#1"/>
    <trip id="37" depart="74.00" from="28891942#1" to="-32385159#5"/>
    <trip id="38" depart="76.00" from="377663241#7" to="388933705#3"/>
    <trip id="39" depart="78.00" from="22908683#3" to="8040010#7"/>
    <trip id="40" depart="80.00" from="5057350#16" to="-196781883#1"/>
    <trip id="41" depart="82.00" from="29226393#1" to="28793404#0"/>
    <trip id="42" depart="84.00" from="-4332703#8" to="8040007#6"/>
    <trip id="43" depart="86.00" from="-24649409#12" to="-4438624#11"/>
    <trip id="44" depart="88.00" from="-1144305709" to="48134249#0"/>
    <trip id="45" depart="90.00" from="-27032530" to="-131188928#0"/>
    <trip id="46" depart="92.00" from="-750656956#17" to="-476945218#0"/>
    <trip id="47" depart="94.00" from="203719821" to="221631855#2"/>
    <trip id="48" depart="96.00" from="36780151#3" to="-30137118#0"/>
    <trip id="49" depart="98.00" from="-33824237#13" to="927361441"/>
    <trip id="50" depart="100.00" from="-22908686#6" to="-14830310#2"/>
    <trip id="51" depart="102.00" from="-14830310#10" to="-767909076#1"/>
    <trip id="52" depart="104.00" from="-33822161#1" to="951545210"/>
    <trip id="53" depart="106.00" from="-53507991#2" to="-210015959"/>
    <trip id="54" depart="108.00" from="745242037#10" to="-519402588"/>
    <trip id="55" depart="110.00" from="51014860#1" to="230224069#9"/>
    <trip id="56" depart="112.00" from="-1099842873" to="29434321#8"/>
    <trip id="57" depart="114.00" from="-4329736" to="-14833801#3"/>
    <trip id="58" depart="116.00" from="-230224066#3" to="181559594"/>
    <trip id="59" depart="118.00" from="229005338" to="-645337465#6"/>
    <trip id="60" depart="120.00" from="23788037" to="-49368295#6"/>
    <trip id="61" depart="122.00" from="5230449#1" to="745242037#1"/>
    <trip id="62" depart="124.00" from="204950205#0" to="196781886"/>
    <trip id="63" depart="126.00" from="1137210597" to="53507990#7"/>
    <trip id="64" depart="128.00" from="48923779" to="23071874"/>
    <trip id="65" depart="130.00" from="259752185#4" to="194903262#1"/>
    <trip id="66" depart="132.00" from="-29215845" to="38100615#2"/>
    <trip id="67" depart="134.00" from="1091549367" to="-744577827#1"/>
    <trip id="68" depart="136.00" from="8040070#2" to="8040009#25"/>
    <trip id="69" depart="138.00" from="8039998#8" to="230197216#10"/>
    <trip id="70" depart="140.00" from="-863243741#2" to="-863243741#7"/>
    <trip id="71" depart="142.00" from="-33824238#7" to="53657886#0"/>
    <trip id="72" depart="144.00" from="-30927486#5" to="22908685#0"/>
    <trip id="73" depart="146.00" from="179132448#3" to="-222179357#3"/>
    <trip id="74" depart="148.00" from="4710415#2" to="-230197216#9"/>
    <trip id="75" depart="150.00" from="33822160#1" to="-8040009#12"/>
    <trip id="76" depart="152.00" from="-295231898#3" to="-4318773#1"/>
    <trip id="77" depart="154.00" from="41291006" to="224011160#0"/>
    <trip id="78" depart="156.00" from="-36812851" to="-1139259915#3"/>
    <trip id="79" depart="158.00" from="-595047025" to="33097518#1"/>
    <trip id="80" depart="160.00" from="-4706897#1" to="-23367396#1"/>
    <trip id="81" depart="162.00" from="22975742#2" to="-4337554#0"/>
    <trip id="82" depart="164.00" from="745242037#8" to="14830310#1"/>
    <trip id="83" depart="166.00" from="-483268722" to="1079450462"/>
    <trip id="84" depart="168.00" from="-53507990#8" to="1088509053"/>
    <trip id="85" depart="170.00" from="47035228#2" to="-767909076#11"/>
    <trip id="86" depart="172.00" from="-481201284#3" to="204957943#0"/>
    <trip id="87" depart="174.00" from="-1163469400#1" to="29434321#10"/>
    <trip id="88" depart="176.00" from="-8040005#2" to="23788060#1"/>
    <trip id="89" depart="178.00" from="-26805422#0" to="-1267755030"/>
    <trip id="90" depart="180.00" from="227020174#0" to="295231919"/>
    <trip id="91" depart="182.00" from="1095559250" to="-1016551157"/>
    <trip id="92" depart="184.00" from="4706888#4" to="-4369494#3"/>
    <trip id="93" depart="186.00" from="1099842874#0" to="229005338"/>
    <trip id="94" depart="188.00" from="36978214#6" to="229337361"/>
    <trip id="95" depart="190.00" from="-4331798#6" to="-8040021#8"/>
    <trip id="96" depart="192.00" from="-1091574005" to="-877625469"/>
    <trip id="97" depart="194.00" from="8040067#4" to="-48923779"/>
    <trip id="98" depart="196.00" from="1091532071" to="-1049905827#1"/>
    <trip id="99" depart="198.00" from="-209376592#4" to="483268719#1"/>
    <trip id="100" depart="200.00" from="1102778850#2" to="29434307#3"/>
    <trip id="101" depart="202.00" from="-14834100#22" to="23788017#3"/>
    <trip id="102" depart="204.00" from="-4707010#10" to="33822351#1"/>
    <trip id="103" depart="206.00" from="1079396143#0" to="-1184770927"/>
    <trip id="104" depart="208.00" from="194930670#1" to="-29434442#2"/>
    <trip id="105" depart="210.00" from="-8040003#16" to="-4445352#14"/>
    <trip id="106" depart="212.00" from="-1098727717#0" to="-29434229#0"/>
    <trip id="107" depart="214.00" from="-8040019#1" to="14833087#5"/>
    <trip id="108" depart="216.00" from="-483268726" to="-23071811#0"/>
    <trip id="109" depart="218.00" from="-48925659#1" to="-849420936#0"/>
    <trip id="110" depart="220.00" from="29434321#6" to="-14832386#5"/>
    <trip id="111" depart="222.00" from="28976477#1" to="-4710863#2"/>
    <trip id="112" depart="224.00" from="-4330940#7" to="-53812180#4"/>
    <trip id="113" depart="226.00" from="791256129#4" to="-38100615#2"/>
    <trip id="114" depart="228.00" from="-4438700#1" to="229012128#5"/>
    <trip id="115" depart="230.00" from="-196794005#3" to="-230197214#0"/>
    <trip id="116" depart="232.00" from="-29434321#12" to="483268719#1"/>
    <trip id="117" depart="234.00" from="-4682975#0" to="-326137447#2"/>
    <trip id="118" depart="236.00" from="486432694" to="4445358"/>
    <trip id="119" depart="238.00" from="1074847542#1" to="4361799#5"/>
    <trip id="120" depart="240.00" from="-24649409#6" to="5057143#1"/>
    <trip id="121" depart="242.00" from="799423573#1" to="227020195"/>
    <trip id="122" depart="244.00" from="5054541#0" to="-4319136#1"/>
    <trip id="123" depart="246.00" from="-1025312626" to="-849420936#1"/>
    <trip id="124" depart="248.00" from="-4706992#1" to="-4050680#1"/>
    <trip id="125" depart="250.00" from="-1078186000#0" to="1088512046"/>
    <trip id="126" depart="252.00" from="220856709#1" to="4445352#16"/>
    <trip id="127" depart="254.00" from="-36978215#2" to="-429287684#1"/>
    <trip id="128" depart="256.00" from="-50735393#2" to="270090284#4"/>
    <trip id="129" depart="258.00" from="-4363351#2" to="906909379"/>
    <trip id="130" depart="260.00" from="475288947#2" to="-1144305709"/>
    <trip id="131" depart="262.00" from="29100296#0" to="194903258#2"/>
    <trip id="132" depart="264.00" from="-750674862#2" to="-230224069#14"/>
    <trip id="133" depart="266.00" from="-4446317#1" to="14834100#16"/>
    <trip id="134" depart="268.00" from="-319962217" to="-4369491#0"/>
    <trip id="135" depart="270.00" from="-196781884#2" to="1083991421#14"/>
    <trip id="136" depart="272.00" from="-977046611" to="-4438700#0"/>
    <trip id="137" depart="274.00" from="-4682974#2" to="4363206#0"/>
    <trip id="138" depart="276.00" from="363911005#1" to="1079441225#0"/>
    <trip id="139" depart="278.00" from="1079375916#1" to="48902334#2"/>
    <trip id="140" depart="280.00" from="295231904" to="-24796588"/>
    <trip id="141" depart="282.00" from="-8040065#8" to="-230197215#13"/>
    <trip id="142" depart="284.00" from="1028445915#1" to="-4264809"/>
    <trip id="143" depart="286.00" from="-4331798#7" to="5057143#4"/>
    <trip id="144" depart="288.00" from="196853222#2" to="4319136#1"/>
    <trip id="145" depart="290.00" from="4710425#2" to="-1145084635"/>
    <trip id="146" depart="292.00" from="-5057142#3" to="179132448#1"/>
    <trip id="147" depart="294.00" from="23444419" to="-4050784#0"/>
    <trip id="148" depart="296.00" from="-4332703#1" to="29434307#2"/>
    <trip id="149" depart="298.00" from="-8044010#1" to="4706898#1"/>
    <trip id="150" depart="300.00" from="8040009#15" to="1079441227#2"/>
    <trip id="151" depart="302.00" from="-1079396157" to="-767909076#9"/>
    <trip id="152" depart="304.00" from="1457625507#2" to="-1083991421#10"/>
    <trip id="153" depart="306.00" from="-377663241#3" to="-23367420#2"/>
    <trip id="154" depart="308.00" from="1023295515#3" to="30927484#12"/>
    <trip id="155" depart="310.00" from="-47035228#2" to="8040015#1"/>
    <trip id="156" depart="312.00" from="-8040113" to="209376598#8"/>
    <trip id="157" depart="314.00" from="429290819" to="-362105377#6"/>
    <trip id="158" depart="316.00" from="30927484#2" to="-228946351"/>
    <trip id="159" depart="318.00" from="29434307#1" to="1093738148"/>
    <trip id="160" depart="320.00" from="23071812" to="1088509051"/>
    <trip id="161" depart="322.00" from="-36827623#3" to="-4332704#6"/>
    <trip id="162" depart="324.00" from="49942735#5" to="130433772#9"/>
    <trip id="163" depart="326.00" from="-4363200#10" to="49942735#5"/>
    <trip id="164" depart="328.00" from="738859781" to="-1088509043#0"/>
    <trip id="165" depart="330.00" from="767909076#16" to="-36813093#3"/>
    <trip id="166" depart="332.00" from="767909076#14" to="-653769332#0"/>
    <trip id="167" depart="334.00" from="-482492538" to="-29564398#3"/>
    <trip id="168" depart="336.00" from="-48923777#1" to="295231897"/>
    <trip id="169" depart="338.00" from="1082697630" to="-28793395#0"/>
    <trip id="170" depart="340.00" from="750656956#12" to="210008600"/>
    <trip id="171" depart="342.00" from="8039994#0" to="4363200#7"/>
    <trip id="172" depart="344.00" from="-4264808#2" to="-4318770"/>
    <trip id="173" depart="346.00" from="227935308#2" to="-23800461#7"/>
    <trip id="174" depart="348.00" from="1098727717#3" to="-53257047#1"/>
    <trip id="175" depart="350.00" from="196781904#13" to="-4319134#10"/>
    <trip id="176" depart="352.00" from="-750886586" to="-799423573#5"/>
    <trip id="177" depart="354.00" from="377663241#6" to="133485544"/>
    <trip id="178" depart="356.00" from="483518695" to="-4330954#1"/>
    <trip id="179" depart="358.00" from="4363355" to="-53812180#4"/>
    <trip id="180" depart="360.00" from="196781876#2" to="-230197215#1"/>
    <trip id="181" depart="362.00" from="-532694281#2" to="-767909076#6"/>
    <trip id="182" depart="364.00" from="483505943#2" to="1098731533#2"/>
    <trip id="183" depart="366.00" from="-36917036#2" to="-4319132#10"/>
    <trip id="184" depart="368.00" from="-4682987#12" to="201667126#2"/>
    <trip id="185" depart="370.00" from="-14830828#0" to="4707007#3"/>
    <trip id="186" depart="372.00" from="295231881#0" to="-4393936"/>
    <trip id="187" depart="374.00" from="388933705#1" to="4363364#3"/>
    <trip id="188" depart="376.00" from="230198089#0" to="1023295515#7"/>
    <trip id="189" depart="378.00" from="35424063" to="-476972735"/>
    <trip id="190" depart="380.00" from="8039991#1" to="210015965"/>
    <trip id="191" depart="382.00" from="4474438#4" to="-22908685#3"/>
    <trip id="192" depart="384.00" from="1079441230" to="14833849#2"/>
    <trip id="193" depart="386.00" from="4050680#10" to="196781875#1"/>
    <trip id="194" depart="388.00" from="5230448#4" to="-8040003#3"/>
    <trip id="195" depart="390.00" from="-8040007#5" to="8044013#4"/>
    <trip id="196" depart="392.00" from="177953462#4" to="-386518697#2"/>
    <trip id="197" depart="394.00" from="38707796" to="1089725413#0"/>
    <trip id="198" depart="396.00" from="-33822351#0" to="-8040007#10"/>
    <trip id="199" depart="398.00" from="4330258#4" to="-23367423#0"/>
    <trip id="200" depart="400.00" from="4683078#6" to="-259752185#3"/>
    <trip id="201" depart="402.00" from="-48134249#4" to="-27327005#4"/>
    <trip id="202" depart="404.00" from="-14211411" to="951561044#0"/>
    <trip id="203" depart="406.00" from="-4332707#2" to="1101516280#0"/>
    <trip id="204" depart="408.00" from="-50735390#1" to="-1184584738#2"/>
    <trip id="205" depart="410.00" from="51014855#2" to="49342288#0"/>
    <trip id="206" depart="412.00" from="777528587#1" to="14831008#2"/>
    <trip id="207" depart="414.00" from="922954534#1" to="-8040003#5"/>
    <trip id="208" depart="416.00" from="198732494#3" to="-230095945#15"/>
    <trip id="209" depart="418.00" from="-8040070#4" to="-14830310#8"/>
    <trip id="210" depart="420.00" from="799423562" to="-14833087#3"/>
    <trip id="211" depart="422.00" from="3995758" to="-975719913"/>
    <trip id="212" depart="424.00" from="8040022#11" to="-426070136#0"/>
    <trip id="213" depart="426.00" from="-230126063#0" to="14833087#8"/>
    <trip id="214" depart="428.00" from="-1099842873" to="47035909#0"/>
    <trip id="215" depart="430.00" from="-229341693#0" to="975941833#1"/>
    <trip id="216" depart="432.00" from="910777337#0" to="-4332706#11"/>
    <trip id="217" depart="434.00" from="-483505943#4" to="-827612216"/>
    <trip id="218" depart="436.00" from="24650353#3" to="-4361799#12"/>
    <trip id="219" depart="438.00" from="37540894#0" to="750656956#15"/>
    <trip id="220" depart="440.00" from="170627650#4" to="-951545207#0"/>
    <trip id="221" depart="442.00" from="1088512044#0" to="-8039994#1"/>
    <trip id="222" depart="444.00" from="744577825#1" to="-595342488#7"/>
    <trip id="223" depart="446.00" from="1089718164" to="-1088509048"/>
    <trip id="224" depart="448.00" from="-221631855#1" to="4332706#4"/>
    <trip id="225" depart="450.00" from="-294676105" to="35809982#2"/>
    <trip id="226" depart="452.00" from="32385050#1" to="-220423377#0"/>
    <trip id="227" depart="454.00" from="137310948#0" to="4438624#2"/>
    <trip id="228" depart="456.00" from="30927486#43" to="-209376664#8"/>
    <trip id="229" depart="458.00" from="29434321#15" to="-4707010#16"/>
    <trip id="230" depart="460.00" from="-194903262#4" to="-4330260#4"/>
    <trip id="231" depart="462.00" from="377663241#2" to="220856709#1"/>
    <trip id="232" depart="464.00" from="951545208#1" to="750656957#3"/>
    <trip id="233" depart="466.00" from="-4332707#3" to="996125674"/>
    <trip id="234" depart="468.00" from="-196794004#3" to="4332914#14"/>
    <trip id="235" depart="470.00" from="-48914826#1" to="-22908686#7"/>
    <trip id="236" depart="472.00" from="654563831" to="4332704#3"/>
    <trip id="237" depart="474.00" from="-863901524" to="8040009#36"/>
    <trip id="238" depart="476.00" from="-108956711#0" to="-62019115"/>
    <trip id="239" depart="478.00" from="227020164" to="-30266481#4"/>
    <trip id="240" depart="480.00" from="-196794005#2" to="-379126961#0"/>
    <trip id="241" depart="482.00" from="4707012#7" to="181559596#0"/>
    <trip id="242" depart="484.00" from="799423573#11" to="1088504183#1"/>
    <trip id="243" depart="486.00" from="378631524#1" to="8040005#4"/>
    <trip id="244" depart="488.00" from="-227020174#2" to="653769332#8"/>
    <trip id="245" depart="490.00" from="-4707010#6" to="4682991#4"/>
    <trip id="246" depart="492.00" from="46759817#2" to="-29434321#8"/>
    <trip id="247" depart="494.00" from="4363201#12" to="1145091904#1"/>
    <trip id="248" depart="496.00" from="-1231938895" to="8040007#1"/>
    <trip id="249" depart="498.00" from="4706991" to="53657886#1"/>
    <trip id="250" depart="500.00" from="927361438" to="-1287993982#1"/>
    <trip id="251" depart="502.00" from="951514180" to="29434321#3"/>
    <trip id="252" depart="504.00" from="209376598#1" to="-196781897#0"/>
    <trip id="253" depart="506.00" from="-14831470#6" to="203719819"/>
    <trip id="254" depart="508.00" from="1300542244" to="33822161#0"/>
    <trip id="255" depart="510.00" from="-1093738152#1" to="4710440"/>
    <trip id="256" depart="512.00" from="-682313473" to="-48923778#0"/>
    <trip id="257" depart="514.00" from="-194903258#3" to="4319136#0"/>
    <trip id="258" depart="516.00" from="14834239#7" to="230197215#33"/>
    <trip id="259" depart="518.00" from="4440375#1" to="1099842874#2"/>
    <trip id="260" depart="520.00" from="-426070136#1" to="-4355828#1"/>
    <trip id="261" depart="522.00" from="-33097524" to="49342289#0"/>
    <trip id="262" depart="524.00" from="209376598#1" to="220267167#0"/>
    <trip id="263" depart="526.00" from="-4330260#4" to="4496623"/>
    <trip id="264" depart="528.00" from="-4318773#1" to="-744581380"/>
    <trip id="265" depart="530.00" from="-4363211#3" to="24649409#3"/>
    <trip id="266" depart="532.00" from="8040117#1" to="595342488#2"/>
    <trip id="267" depart="534.00" from="1079441227#1" to="-745242037#15"/>
    <trip id="268" depart="536.00" from="-1088509049#1" to="922954532#3"/>
    <trip id="269" depart="538.00" from="-426070136#0" to="-744577832#2"/>
    <trip id="270" depart="540.00" from="-4363349#0" to="-1023295518"/>
    <trip id="271" depart="542.00" from="14833469" to="951514178"/>
    <trip id="272" depart="544.00" from="29434321#14" to="-270090284#3"/>
    <trip id="273" depart="546.00" from="-204957955#1" to="1023306158"/>
    <trip id="274" depart="548.00" from="4363206#1" to="-8040070#4"/>
    <trip id="275" depart="550.00" from="22908685#7" to="1091816982#2"/>
    <trip id="276" depart="552.00" from="1457625508#3" to="479766340#2"/>
    <trip id="277" depart="554.00" from="179132448#2" to="38100615#8"/>
    <trip id="278" depart="556.00" from="4332708#1" to="-8040065#3"/>
    <trip id="279" depart="558.00" from="-230224069#3" to="23071810#7"/>
    <trip id="280" depart="560.00" from="-4682991#1" to="-1373087778"/>
    <trip id="281" depart="562.00" from="295231886#5" to="893897776"/>
    <trip id="282" depart="564.00" from="-5054541#1" to="-653769332#0"/>
    <trip id="283" depart="566.00" from="50250457" to="230095945#10"/>
    <trip id="284" depart="568.00" from="-218271777" to="-29226311#0"/>
    <trip id="285" depart="570.00" from="38100615#2" to="800840322"/>
    <trip id="286" depart="572.00" from="-483268725#0" to="767904053"/>
    <trip id="287" depart="574.00" from="-904600205" to="204957942#1"/>
    <trip id="288" depart="576.00" from="-196794005#2" to="196781904#11"/>
    <trip id="289" depart="578.00" from="-209376684#6" to="170627650#4"/>
    <trip id="290" depart="580.00" from="23367423#3" to="-36917036#1"/>
    <trip id="291" depart="582.00" from="8040003#13" to="23545639#0"/>
    <trip id="292" depart="584.00" from="801409081#0" to="-30927486#25"/>
    <trip id="293" depart="586.00" from="-23788083#0" to="-4707012#4"/>
    <trip id="294" depart="588.00" from="126382935#0" to="-23800400#0"/>
    <trip id="295" depart="590.00" from="-49368291" to="377663241#7"/>
    <trip id="296" depart="592.00" from="-194903262#0" to="-5057353#0"/>
    <trip id="297" depart="594.00" from="655721912#0" to="33822353#4"/>
    <trip id="298" depart="596.00" from="33824240#0" to="27327005#3"/>
    <trip id="299" depart="598.00" from="-912462365#0" to="38300302"/>
    <trip id="300" depart="600.00" from="4363200#5" to="-8039998#6"/>
    <trip id="301" depart="602.00" from="-29434307#3" to="194930668#1"/>
    <trip id="302" depart="604.00" from="307576075#1" to="-4050680#3"/>
    <trip id="303" depart="606.00" from="33824238#12" to="-363911034#2"/>
    <trip id="304" depart="608.00" from="4438624#12" to="31619964#1"/>
    <trip id="305" depart="610.00" from="922954530" to="32385159#12"/>
    <trip id="306" depart="612.00" from="-23651787" to="-8040005#6"/>
    <trip id="307" depart="614.00" from="-1422366122#0" to="14834239#16"/>
    <trip id="308" depart="616.00" from="196793986#0" to="-5057350#14"/>
    <trip id="309" depart="618.00" from="5054572" to="-8040065#18"/>
    <trip id="310" depart="620.00" from="1418716639#0" to="-227935304"/>
    <trip id="311" depart="622.00" from="35830126#3" to="325063501#0"/>
    <trip id="312" depart="624.00" from="-1091541944#1" to="-326137447#2"/>
    <trip id="313" depart="626.00" from="229012128#5" to="4707003#2"/>
    <trip id="314" depart="628.00" from="4363201#4" to="-1143885196#0"/>
    <trip id="315" depart="630.00" from="1088509046#0" to="4682988"/>
    <trip id="316" depart="632.00" from="801401729" to="-481201283"/>
    <trip id="317" depart="634.00" from="922954532#3" to="228937172"/>
    <trip id="318" depart="636.00" from="4318768" to="-4363201#11"/>
    <trip id="319" depart="638.00" from="1089811012#3" to="975719898"/>
    <trip id="320" depart="640.00" from="4710862#2" to="295231877"/>
    <trip id="321" depart="642.00" from="1023295508#0" to="-1079396157"/>
    <trip id="322" depart="644.00" from="1091589333" to="14833631#2"/>
    <trip id="323" depart="646.00" from="1091755988#0" to="30266442#0"/>
    <trip id="324" depart="648.00" from="-951532455" to="8040000#0"/>
    <trip id="325" depart="650.00" from="-23071811#1" to="4366494#7"/>
    <trip id="326" depart="652.00" from="379126961#2" to="5230451#5"/>
    <trip id="327" depart="654.00" from="8044010#2" to="-1145091904#1"/>
    <trip id="328" depart="656.00" from="196849541#0" to="744577825#4"/>
    <trip id="329" depart="658.00" from="48064576" to="8040019#3"/>
    <trip id="330" depart="660.00" from="-4332704#6" to="5057350#3"/>
    <trip id="331" depart="662.00" from="1457837912" to="-48923779"/>
    <trip id="332" depart="664.00" from="8040069#3" to="5057352#1"/>
    <trip id="333" depart="666.00" from="33824237#0" to="483505943#2"/>
    <trip id="334" depart="668.00" from="5057353#0" to="-175870632#2"/>
    <trip id="335" depart="670.00" from="-483505943#1" to="196794005#9"/>
    <trip id="336" depart="672.00" from="993383301" to="-4691431#1"/>
    <trip id="337" depart="674.00" from="977046612" to="4330940#4"/>
    <trip id="338" depart="676.00" from="1088504183#1" to="4707001#0"/>
    <trip id="339" depart="678.00" from="-975719912" to="230197215#5"/>
    <trip id="340" depart="680.00" from="-78250329#1" to="681473633"/>
    <trip id="341" depart="682.00" from="-8040009#6" to="295231886#1"/>
    <trip id="342" depart="684.00" from="1145091904#0" to="49368295#8"/>
    <trip id="343" depart="686.00" from="298849623" to="-32385159#1"/>
    <trip id="344" depart="688.00" from="36978214#6" to="196794004#3"/>
    <trip id="345" depart="690.00" from="1016179380" to="-33097508"/>
    <trip id="346" depart="692.00" from="726086474#0" to="-196853198#2"/>
    <trip id="347" depart="694.00" from="4440378" to="221631855#2"/>
    <trip id="348" depart="696.00" from="-643824583" to="4050784#1"/>
    <trip id="349" depart="698.00" from="-977937555" to="23444419"/>
    <trip id="350" depart="700.00" from="-4369494#3" to="-1023304259#2"/>
    <trip id="351" depart="702.00" from="760779356#4" to="-1145084632#1"/>
    <trip id="352" depart="704.00" from="-750669590#2" to="1145091900#2"/>
    <trip id="353" depart="706.00" from="1145091901" to="-1099842875"/>
    <trip id="354" depart="708.00" from="975941834" to="143209431"/>
    <trip id="355" depart="710.00" from="298849619#1" to="-363911034#3"/>
    <trip id="356" depart="712.00" from="-1164149128" to="48134248"/>
    <trip id="357" depart="714.00" from="48914825" to="230126066#0"/>
    <trip id="358" depart="716.00" from="48923778#0" to="196793988#0"/>
    <trip id="359" depart="718.00" from="872644921" to="1091587917#0"/>
    <trip id="360" depart="720.00" from="-35809982#2" to="219701603#3"/>
    <trip id="361" depart="722.00" from="4363202#1" to="33095139#4"/>
    <trip id="362" depart="724.00" from="103170866#1" to="1089798746#1"/>
    <trip id="363" depart="726.00" from="-53579410#1" to="209376592#3"/>
    <trip id="364" depart="728.00" from="-5057349#6" to="-28876765#0"/>
    <trip id="365" depart="730.00" from="4438624#14" to="745242038#0"/>
    <trip id="366" depart="732.00" from="4438624#5" to="-30927486#9"/>
    <trip id="367" depart="734.00" from="-800843615#1" to="4363353#0"/>
    <trip id="368" depart="736.00" from="114023967" to="1023304256#0"/>
    <trip id="369" depart="738.00" from="1145091898#0" to="103170866#1"/>
    <trip id="370" depart="740.00" from="-194930668#2" to="8040009#4"/>
    <trip id="371" depart="742.00" from="295231914#5" to="52782330"/>
    <trip id="372" depart="744.00" from="4706882" to="-30927486#35"/>
    <trip id="373" depart="746.00" from="-30927486#28" to="26411066#0"/>
    <trip id="374" depart="748.00" from="4710871#1" to="-1155190569#7"/>
    <trip id="375" depart="750.00" from="-53812180#9" to="-1079381027#1"/>
    <trip id="376" depart="752.00" from="230197215#12" to="-23545528#7"/>
    <trip id="377" depart="754.00" from="295231891#3" to="108968144#1"/>
    <trip id="378" depart="756.00" from="-4330258#2" to="-1079375914"/>
    <trip id="379" depart="758.00" from="4331798#0" to="-22908686#4"/>
    <trip id="380" depart="760.00" from="48064576" to="-326137447#1"/>
    <trip id="381" depart="762.00" from="194938090#1" to="-5230449#3"/>
    <trip id="382" depart="764.00" from="-46759830#4" to="48863540#2"/>
    <trip id="383" depart="766.00" from="4363349#0" to="-1023304260#9"/>
    <trip id="384" depart="768.00" from="378630990" to="49867164"/>
    <trip id="385" depart="770.00" from="-1099842873" to="977046615#2"/>
    <trip id="386" depart="772.00" from="-33095144#4" to="-4367040#1"/>
    <trip id="387" depart="774.00" from="209376664#1" to="49062695#0"/>
    <trip id="388" depart="776.00" from="33822160#1" to="-210015950#3"/>
    <trip id="389" depart="778.00" from="4366944#1" to="4317367"/>
    <trip id="390" depart="780.00" from="14830310#11" to="4363268#1"/>
    <trip id="391" depart="782.00" from="951514177" to="-194930668#1"/>
    <trip id="392" depart="784.00" from="-4323225#5" to="133485544"/>
    <trip id="393" depart="786.00" from="1155190569#11" to="4707012#3"/>
    <trip id="394" depart="788.00" from="5057142#7" to="-4710612#2"/>
    <trip id="395" depart="790.00" from="-4445352#0" to="-52823309"/>
    <trip id="396" depart="792.00" from="-653769332#2" to="-1091574005"/>
    <trip id="397" depart="794.00" from="303676898#1" to="33822007#6"/>
    <trip id="398" depart="796.00" from="801401727" to="-53507990#9"/>
    <trip id="399" depart="798.00" from="-26805422#0" to="-47035746#1"/>
    <trip id="400" depart="800.00" from="-1153962133#0" to="172698970"/>
    <trip id="401" depart="802.00" from="35830126#10" to="-1164149128"/>
    <trip id="402" depart="804.00" from="-23787262#0" to="-52698139"/>
    <trip id="403" depart="806.00" from="-1433829318" to="-33824238#7"/>
    <trip id="404" depart="808.00" from="-47035909#0" to="-683393935"/>
    <trip id="405" depart="810.00" from="198764258#1" to="209376664#11"/>
    <trip id="406" depart="812.00" from="4264801" to="29434270#2"/>
    <trip id="407" depart="814.00" from="5057350#3" to="-8040117#0"/>
    <trip id="408" depart="816.00" from="1144305707#0" to="-33824237#0"/>
    <trip id="409" depart="818.00" from="-30927486#41" to="-23787254#1"/>
    <trip id="410" depart="820.00" from="-196844506" to="-4683087#0"/>
    <trip id="411" depart="822.00" from="-224011160#1" to="333398030#1"/>
    <trip id="412" depart="824.00" from="4050622" to="219701603#2"/>
    <trip id="413" depart="826.00" from="126382935#0" to="750408327#12"/>