<configuration>
  <input>
    <net-file value="nuernberg_center.net.xml"/>
    <route-files value="nuernberg_center.rou.xml"/>
    <additional-files value="nuernberg_center.poly.xml"/>
  </input>

  <time>
    <begin value="0"/>
    <end value="3600"/>
    <step-length value="0.1"/>
  </time>
</configuration>
