<?xml version="1.0" encoding="UTF-8"?>

<!-- generated on 12/15/25 01:26:50 by Eclipse SUMO polyconvert Version 1.5.0
<configuration xmlns:xsi="http://www.w3.org/2001/XMLSchema-instance" xsi:noNamespaceSchemaLocation="http://sumo.dlr.de/xsd/polyconvertConfiguration.xsd">

    <input>
        <net-file value="nuernberg_center.net.xml"/>
        <osm-files value="nuernberg_center_raw.osm"/>
    </input>

    <output>
        <output-file value="nuernberg_center.poly.xml"/>
    </output>

    <processing>
        <poi-layer-offset value="5"/>
    </processing>

</configuration>
-->

<additional xmlns:xsi="http://www.w3.org/2001/XMLSchema-instance" xsi:noNamespaceSchemaLocation="http://sumo.dlr.de/xsd/additional_file.xsd">
    <location netOffset="-677444.24,-5403097.02" convBoundary="0.00,-282.25,2370.92,2277.88" origBoundary="11.415122,48.752906,11.447237,48.775795" projParameter="+proj=utm +zone=32 +ellps=WGS84 +datum=WGS84 +units=m +no_defs"/>

    <poly id="101238052" type="building" color="255,230,230" fill="1" layer="-1.00" shape="1075.504382,999.630118 1087.223744,1006.012114 1112.466815,1019.623716 1117.732799,1009.956302 1080.770317,989.962671 1075.504382,999.630118"/>
    <poly id="1021661418" type="building" color="255,230,230" fill="1" layer="-1.00" shape="1091.268646,322.877739 1114.453479,321.325422 1112.728102,304.158478 1089.389133,305.928411 1091.268646,322.877739"/>
    <poly id="102818926" type="amenity" color="237,199,199" fill="1" layer="-1.00" shape="665.021000,533.919798 675.133529,529.123680 669.279571,516.832247 682.095443,510.764804 687.956376,523.067600 697.665406,518.470072 687.115663,496.327248 654.477807,511.799501 665.021000,533.919798"/>
    <poly id="102818926#1" type="building" color="255,230,230" fill="1" layer="-1.00" shape="665.021000,533.919798 675.133529,529.123680 669.279571,516.832247 682.095443,510.764804 687.956376,523.067600 697.665406,518.470072 687.115663,496.327248 654.477807,511.799501 665.021000,533.919798"/>
    <poly id="102818929" type="building" color="255,230,230" fill="1" layer="-1.00" shape="586.807069,480.930089 600.245620,442.572317 601.561541,438.898092 586.865931,433.757657 572.089869,475.777874 586.807069,480.930089"/>
    <poly id="102818930" type="amenity" color="237,199,199" fill="1" layer="-1.00" shape="758.308227,381.458875 763.685137,377.313186 749.023778,358.388265 743.647217,362.522854 758.308227,381.458875"/>
    <poly id="102818930#1" type="building" color="255,230,230" fill="1" layer="-1.00" shape="758.308227,381.458875 763.685137,377.313186 749.023778,358.388265 743.647217,362.522854 758.308227,381.458875"/>
    <poly id="103053764" type="building" color="255,230,230" fill="1" layer="-1.00" shape="213.241801,778.950589 215.459685,779.755318 216.689143,781.574509 216.641608,783.998463 215.374121,785.693875 203.407356,794.014476 191.133864,804.583936 189.354172,808.744187 191.590424,811.518788 183.894601,827.106759 180.822364,825.874387 180.438027,826.396234 182.368888,840.876793 176.972430,841.495438 176.849351,839.811509 175.985097,827.645634 172.391075,828.021097 172.076593,826.342218 171.820139,823.530332 171.873351,822.085644 171.004731,817.240525 164.277325,815.992279 162.612405,810.743604 162.515615,806.145504 163.739104,805.372141 171.012501,800.774327 174.669121,803.293603 178.364585,800.418016 194.315637,789.854011 210.231587,779.934241 213.241801,778.950589"/>
    <poly id="103053780" type="amenity" color="237,199,199" fill="1" layer="-1.00" shape="133.341762,682.433406 139.308762,694.204895 183.876432,672.655376 177.462491,660.135336 133.341762,682.433406"/>
    <poly id="103053780#1" type="building" color="255,230,230" fill="1" layer="-1.00" shape="133.341762,682.433406 139.308762,694.204895 183.876432,672.655376 177.462491,660.135336 133.341762,682.433406"/>
    <poly id="103397397" type="building" color="255,230,230" fill="1" layer="-1.00" shape="785.937791,1550.373484 787.625102,1571.744771 804.752238,1570.410142 803.064991,1549.038848 785.937791,1550.373484"/>
    <poly id="103504909" type="building" color="255,230,230" fill="1" layer="-1.00" shape="2008.094830,226.073795 1990.787581,197.314063 1980.917204,203.217157 1998.224125,231.987971 2008.094830,226.073795"/>
    <poly id="103504920" type="building" color="255,230,230" fill="1" layer="-1.00" shape="2003.041053,129.013964 2052.330838,121.192860 2050.486274,109.662622 2001.196036,117.494860 2003.041053,129.013964"/>
    <poly id="103505648" type="building" color="255,230,230" fill="1" layer="-1.00" shape="1861.015250,367.357287 1909.491088,341.017297 1903.904329,330.791340 1855.428436,357.131379 1861.015250,367.357287"/>
    <poly id="103505650" type="building" color="255,230,230" fill="1" layer="-1.00" shape="1901.654738,266.009512 1899.676083,259.804468 1893.392138,240.110082 1891.486821,234.141041 1881.074587,237.445671 1891.242910,269.303007 1901.654738,266.009512"/>
    <poly id="103505651" type="building" color="255,230,230" fill="1" layer="-1.00" shape="1898.365647,162.953789 1962.944962,152.050367 1963.415129,154.824726 1999.650871,148.709848 1997.787327,137.768711 1962.483549,143.724333 1962.118718,141.565290 1896.614608,152.628240 1898.365647,162.953789"/>
    <poly id="103505652" type="building" color="255,230,230" fill="1" layer="-1.00" shape="1921.564640,332.236270 1949.226677,317.245836 1944.293697,308.197914 1916.631632,323.188373 1921.564640,332.236270"/>
    <poly id="103505654" type="building" color="255,230,230" fill="1" layer="-1.00" shape="2010.887044,281.237864 1989.884038,244.771577 1980.778781,249.987121 2001.781822,286.453373 2010.887044,281.237864"/>
    <poly id="103505656" type="building" color="255,230,230" fill="1" layer="-1.00" shape="1809.762218,260.161688 1798.753892,241.884902 1794.456139,244.462043 1805.471465,262.750171 1809.762218,260.161688"/>
    <poly id="103505659" type="building" color="255,230,230" fill="1" layer="-1.00" shape="1851.340817,350.625139 1839.625751,330.767949 1834.400062,333.838261 1846.108146,353.684090 1851.340817,350.625139"/>
    <poly id="103505660" type="building" color="255,230,230" fill="1" layer="-1.00" shape="1840.299784,309.037913 1835.037809,300.380100 1805.272632,318.341163 1810.526927,327.009827 1840.299784,309.037913"/>
    <poly id="103505661" type="building" color="255,230,230" fill="1" layer="-1.00" shape="1809.549820,219.477691 1827.827071,249.213609 1837.732643,243.122243 1824.167921,221.058509 1819.455419,213.386292 1809.549820,219.477691"/>
    <poly id="103505662" type="building" color="255,230,230" fill="1" layer="-1.00" shape="1970.956429,304.880275 1953.523318,275.460173 1943.731233,281.221192 1961.164373,310.641263 1970.956429,304.880275"/>
    <poly id="103505664" type="building" color="255,230,230" fill="1" layer="-1.00" shape="1971.351971,249.629288 1951.998266,215.630415 1943.082068,220.685188 1962.436162,254.672916 1971.351971,249.629288"/>
    <poly id="103505667" type="building" color="255,230,230" fill="1" layer="-1.00" shape="1884.975267,121.213331 1872.784799,128.121516 1869.317274,122.002302 1867.856083,122.834456 1865.237773,118.222230 1866.698608,117.401191 1859.658271,105.003637 1858.099760,105.888306 1855.732112,101.718036 1857.297974,100.833601 1849.122001,86.452608 1847.383905,87.431663 1844.800168,82.887313 1846.545615,81.908493 1842.277031,74.383998 1854.460220,67.475510 1884.975267,121.213331"/>
    <poly id="103505668" type="building" color="255,230,230" fill="1" layer="-1.00" shape="1799.552554,234.633980 1793.965812,225.086848 1760.751255,244.395218 1766.330681,253.942082 1772.842824,250.211951 1799.552554,234.633980"/>
    <poly id="103505669" type="building" color="255,230,230" fill="1" layer="-1.00" shape="1826.055628,211.962153 1831.847057,208.687426 1855.289738,195.441681 1850.401035,186.840322 1821.159550,203.360585 1826.055628,211.962153"/>
    <poly id="103505671" type="building" color="255,230,230" fill="1" layer="-1.00" shape="1901.250169,296.081680 1905.813334,304.505770 1915.342523,299.370455 1916.940134,302.314456 1932.607211,293.882263 1926.439472,282.502796 1901.250169,296.081680"/>
    <poly id="103505673" type="building" color="255,230,230" fill="1" layer="-1.00" shape="1917.484126,234.150782 1914.629380,226.359995 1914.278226,225.380766 1913.682814,223.759519 1909.144567,211.341934 1908.542872,209.687108 1908.069408,208.392427 1903.240061,195.186691 1902.827392,194.060851 1902.245602,192.473420 1899.351345,184.536738 1888.133674,188.638886 1906.266535,238.252892 1911.350643,236.390854 1917.484126,234.150782"/>
    <poly id="103505674" type="building" color="255,230,230" fill="1" layer="-1.00" shape="1834.936668,251.177022 1825.903872,256.662158 1854.498843,303.484662 1863.524249,297.999337 1841.325248,261.639979 1834.936668,251.177022"/>
    <poly id="103505676" type="building" color="255,230,230" fill="1" layer="-1.00" shape="1815.768363,273.149127 1810.884054,264.870600 1782.620120,281.433472 1787.504453,289.711974 1815.768363,273.149127"/>
    <poly id="103505678" type="building" color="255,230,230" fill="1" layer="-1.00" shape="1831.908430,296.797372 1821.279216,277.942990 1816.238764,280.741101 1827.295413,299.342137 1831.908430,296.797372"/>
    <poly id="103512658" type="building" color="255,230,230" fill="1" layer="-1.00" shape="241.627270,971.886359 241.793704,973.593920 242.020493,975.948706 242.142615,977.198694 235.061853,977.819422 235.031017,976.705844 234.983269,974.735028 234.928590,972.519220 241.627270,971.886359"/>
    <poly id="103512673" type="building" color="255,230,230" fill="1" layer="-1.00" shape="234.928590,972.519220 227.643016,973.567367 226.979288,968.294827 226.568633,965.244393 235.755615,964.078606 240.674355,963.444853 240.988421,966.525598 241.627270,971.886359 234.928590,972.519220"/>
    <poly id="103512673#1" type="historic" color="128,255,128" fill="1" layer="-1.00" shape="234.928590,972.519220 227.643016,973.567367 226.979288,968.294827 226.568633,965.244393 235.755615,964.078606 240.674355,963.444853 240.988421,966.525598 241.627270,971.886359 234.928590,972.519220"/>
    <poly id="103671260" type="building" color="255,230,230" fill="1" layer="-1.00" shape="905.494000,935.463018 885.101708,927.714658 889.868792,915.227383 910.260770,922.986874 908.840440,926.702211 906.713268,932.286448 905.494000,935.463018"/>
    <poly id="103958352" type="building" color="255,230,230" fill="1" layer="-1.00" shape="1816.713066,123.299059 1843.887546,167.872981 1861.202543,157.379395 1849.991935,138.984772 1841.131540,144.364154 1825.168075,118.173681 1816.713066,123.299059"/>
    <poly id="103958353" type="building" color="255,230,230" fill="1" layer="-1.00" shape="1787.603417,127.885379 1770.845248,137.762828 1801.366391,189.252892 1818.124474,179.375536 1787.603417,127.885379"/>
    <poly id="103958354" type="building" color="255,230,230" fill="1" layer="-1.00" shape="1832.423756,176.673716 1837.669137,173.681909 1828.693904,158.073714 1823.448159,161.076645 1832.423756,176.673716"/>
    <poly id="103958355" type="building" color="255,230,230" fill="1" layer="-1.00" shape="1733.103537,157.838769 1729.305077,169.177090 1734.174312,177.243653 1726.891531,181.605603 1733.073682,191.861541 1727.816048,195.008816 1733.690841,204.754240 1743.621501,198.797026 1740.722930,193.975618 1754.973436,185.441947 1746.164754,170.829454 1773.615727,154.396111 1761.265435,133.906853 1746.197386,142.926144 1749.334105,148.122341 1733.103537,157.838769"/>
    <poly id="103958356" type="building" color="255,230,230" fill="1" layer="-1.00" shape="1744.188723,212.099796 1752.954323,206.917507 1752.095602,205.476993 1755.987268,203.176096 1756.811024,204.559860 1759.832781,202.776294 1758.080729,199.827400 1763.652015,196.534429 1760.294408,190.886104 1762.116499,189.809579 1761.264770,188.380414 1764.744075,186.322220 1765.490908,187.581135 1767.365511,186.472914 1764.775714,182.117552 1766.725232,180.967225 1765.964412,179.685610 1769.563798,177.553381 1770.345597,178.869047 1774.079758,176.663253 1773.262995,175.290836 1777.057374,173.042468 1777.923089,174.494336 1779.872612,173.344013 1784.870724,181.748536 1771.778233,189.495881 1774.277466,193.692581 1776.047049,192.647757 1777.185132,194.553392 1778.564740,193.740857 1781.154520,198.096226 1779.692295,198.961746 1781.144348,201.400364 1758.829113,214.593498 1761.272399,218.699392 1752.761652,223.734062 1747.672627,215.182017 1746.450558,215.899468 1744.188723,212.099796"/>
    <poly id="103961883" type="building" color="255,230,230" fill="1" layer="-1.00" shape="1709.417259,107.224337 1721.435741,89.595834 1734.920512,98.783775 1738.725778,93.209012 1718.430376,79.374850 1714.323923,85.396156 1708.593243,81.485469 1699.099237,95.400787 1707.868238,101.378040 1705.637279,104.655598 1709.417259,107.224337"/>
    <poly id="103961884" type="building" color="255,230,230" fill="1" layer="-1.00" shape="1726.887946,101.285914 1720.478219,111.005244 1730.695274,117.707583 1737.112362,107.988501 1726.887946,101.285914"/>
    <poly id="103961885" type="building" color="255,230,230" fill="1" layer="-1.00" shape="1703.217430,121.189460 1700.410291,116.037220 1695.072248,118.937180 1692.063362,113.422452 1683.199544,118.223409 1689.022931,128.890599 1703.217430,121.189460"/>
    <poly id="104473946" type="building" color="255,230,230" fill="1" layer="-1.00" shape="116.559585,1798.926956 116.869340,1789.168168 104.063900,1788.761724 103.754167,1798.520512 116.559585,1798.926956"/>
    <poly id="104473955" type="building" color="255,230,230" fill="1" layer="-1.00" shape="120.967943,1846.552618 141.095370,1851.441677 144.150880,1839.978770 124.026941,1834.978552 120.967943,1846.552618"/>
    <poly id="104473958" type="building" color="255,230,230" fill="1" layer="-1.00" shape="123.339386,1813.083027 140.824475,1816.886865 143.551409,1804.423312 126.066282,1800.619467 123.339386,1813.083027"/>
    <poly id="104473961" type="building" color="255,230,230" fill="1" layer="-1.00" shape="115.250156,1829.059081 115.964168,1818.612187 96.869984,1818.006147 96.156007,1828.453042 115.250156,1829.059081"/>
    <poly id="1049127185" type="building" color="255,230,230" fill="1" layer="-1.00" shape="1408.165523,1279.405379 1422.303255,1238.178868 1437.284027,1243.286274 1423.146192,1284.512750 1408.165523,1279.405379"/>
    <poly id="110778810" type="building" color="255,230,230" fill="1" layer="-1.00" shape="826.948610,1171.079876 825.983231,1173.908514 824.351781,1179.174789 826.804905,1179.976143 834.654792,1182.451472 837.463034,1174.185283 826.948610,1171.079876"/>
    <poly id="110778811" type="building" color="255,230,230" fill="1" layer="-1.00" shape="808.393822,1238.658061 808.682403,1248.068773 819.228833,1247.625960 823.919116,1247.463870 823.553630,1238.851782 819.966885,1239.004529 820.102141,1242.146386 818.025536,1242.224862 817.873638,1238.681936 808.393822,1238.658061"/>
    <poly id="110778814" type="building" color="255,230,230" fill="1" layer="-1.00" shape="946.402401,1222.295348 927.203813,1215.897705 924.651479,1223.515576 943.850042,1229.913211 946.402401,1222.295348"/>
    <poly id="110778816" type="building" color="255,230,230" fill="1" layer="-1.00" shape="867.597262,1248.944722 871.327283,1237.603753 881.199071,1239.175624 877.928735,1250.631373 867.597262,1248.944722"/>
    <poly id="110778818" type="building" color="255,230,230" fill="1" layer="-1.00" shape="788.476972,1116.271169 794.367163,1117.003976 795.537092,1107.061176 796.388445,1105.041103 790.975842,1104.323507 789.825006,1106.278411 788.476972,1116.271169"/>
    <poly id="110778819" type="building" color="255,230,230" fill="1" layer="-1.00" shape="1076.648757,1127.672208 1075.593199,1130.787211 1078.904276,1132.361498 1074.967420,1141.871077 1067.615117,1138.554576 1066.799499,1141.065301 1068.218819,1141.533375 1066.431511,1146.605476 1061.905239,1145.081436 1064.264820,1137.056927 1068.025130,1123.858975 1076.648757,1127.672208"/>
    <poly id="110778820" type="building" color="255,230,230" fill="1" layer="-1.00" shape="809.653781,1096.373709 810.130139,1093.195707 810.431658,1090.657447 803.768425,1090.178148 802.622535,1090.130518 802.692573,1095.551137 809.653781,1096.373709"/>
    <poly id="110778821" type="building" color="255,230,230" fill="1" layer="-1.00" shape="813.842244,1099.500054 814.667133,1091.615710 829.234119,1093.114538 829.065287,1098.182640 828.204803,1100.258049 813.842244,1099.500054"/>
    <poly id="110778822" type="building" color="255,230,230" fill="1" layer="-1.00" shape="868.805116,1215.660658 866.815588,1225.699717 858.377344,1223.917657 860.352326,1215.257764 863.076164,1213.564398 865.100009,1206.141056 867.202295,1206.641970 870.991506,1207.752951 868.805116,1215.660658"/>
    <poly id="110778823" type="building" color="255,230,230" fill="1" layer="-1.00" shape="911.340927,1093.316821 916.004647,1081.071047 918.526470,1073.719224 912.931939,1072.016618 908.205318,1070.775600 906.803227,1076.227183 905.609278,1080.917703 899.834508,1079.331752 897.301768,1090.488348 904.272512,1092.857865 904.218137,1094.102251 905.277179,1094.336277 905.851198,1099.172160 910.712827,1098.715193 911.340927,1093.316821"/>
    <poly id="110778825" type="building" color="255,230,230" fill="1" layer="-1.00" shape="888.935988,1110.426637 899.966208,1110.967348 899.577654,1099.851152 892.788460,1099.401110 892.468049,1101.838632 889.302603,1101.693237 888.935988,1110.426637"/>
    <poly id="110778826" type="building" color="255,230,230" fill="1" layer="-1.00" shape="903.469590,1184.733567 895.553352,1209.492632 901.674199,1211.523535 903.048443,1207.406191 904.722441,1207.960224 911.492335,1187.092129 903.469590,1184.733567"/>
    <poly id="110778827" type="building" color="255,230,230" fill="1" layer="-1.00" shape="1072.280159,1148.639006 1074.047613,1144.189333 1074.967420,1141.871077 1067.615117,1138.554576 1066.799499,1141.065301 1068.218819,1141.533375 1066.431511,1146.605476 1072.280159,1148.639006"/>
    <poly id="110778828" type="building" color="255,230,230" fill="1" layer="-1.00" shape="810.924606,1309.277893 810.962047,1311.103760 810.984085,1312.951388 812.956029,1312.925206 821.086271,1312.828213 821.066271,1311.147541 821.041493,1309.155187 810.924606,1309.277893"/>
    <poly id="110778829" type="building" color="255,230,230" fill="1" layer="-1.00" shape="841.462336,1108.457580 848.488682,1109.082008 848.884586,1106.813781 850.042689,1106.939693 852.368818,1092.338545 849.348197,1092.264545 842.609804,1092.528251 841.675087,1103.858171 841.462336,1108.457580"/>
    <poly id="110778830" type="building" color="255,230,230" fill="1" layer="-1.00" shape="842.621362,1081.547201 841.893188,1090.780878 842.609804,1092.528251 849.348197,1092.264545 852.368818,1092.338545 857.686790,1093.487101 857.047956,1096.915822 865.129281,1098.363839 867.088041,1086.521376 857.488636,1085.625789 848.211292,1084.317691 848.438463,1082.266609 842.621362,1081.547201"/>
    <poly id="110778831" type="building" color="255,230,230" fill="1" layer="-1.00" shape="1052.761129,1077.810708 1051.577176,1077.572670 1049.250199,1087.111370 1061.513998,1089.794579 1061.821323,1088.691776 1063.998193,1080.861707 1052.761129,1077.810708"/>
    <poly id="110778832" type="building" color="255,230,230" fill="1" layer="-1.00" shape="871.938806,1136.487337 884.654331,1137.226370 879.677810,1161.367082 873.437830,1159.610562 873.558145,1158.835572 871.194605,1157.992548 867.526201,1156.551638 871.938806,1136.487337"/>
    <poly id="110778833" type="building" color="255,230,230" fill="1" layer="-1.00" shape="819.596128,1168.920811 819.373924,1171.739749 825.983231,1173.908514 826.948610,1171.079876 819.596128,1168.920811"/>
    <poly id="110778834" type="building" color="255,230,230" fill="1" layer="-1.00" shape="847.870245,1202.120658 848.160446,1199.938072 849.474121,1193.104028 850.943341,1185.774269 871.355816,1189.629080 867.202295,1206.641970 865.100009,1206.141056 859.065718,1204.624752 852.033570,1203.032151 847.870245,1202.120658"/>
    <poly id="110778835" type="building" color="255,230,230" fill="1" layer="-1.00" shape="904.479087,1332.575550 905.945708,1320.483761 916.778269,1321.674666 925.559928,1322.599939 921.851951,1334.631395 904.479087,1332.575550"/>
    <poly id="110778836" type="building" color="255,230,230" fill="1" layer="-1.00" shape="1036.328493,1110.586866 1040.578700,1089.638523 1045.066096,1090.538242 1040.815518,1111.497697 1036.328493,1110.586866"/>
    <poly id="110778837" type="building" color="255,230,230" fill="1" layer="-1.00" shape="913.381692,1239.956672 916.568411,1230.434210 909.545352,1228.096378 910.675433,1224.716699 900.668566,1221.382552 900.172182,1222.879875 899.456866,1225.015531 896.351799,1234.284704 913.381692,1239.956672"/>
    <poly id="110778839" type="building" color="255,230,230" fill="1" layer="-1.00" shape="783.063913,1096.171985 775.949550,1095.077543 775.353857,1095.536989 769.967535,1094.686739 770.622411,1089.367094 783.697560,1091.519228 783.426593,1093.791437 783.063913,1096.171985"/>
    <poly id="110778840" type="building" color="255,230,230" fill="1" layer="-1.00" shape="891.977489,1220.148686 893.698845,1215.063310 901.042384,1217.500345 901.871857,1217.782684 900.668566,1221.382552 900.172182,1222.879875 898.010863,1222.154545 891.977489,1220.148686"/>
    <poly id="110778841" type="building" color="255,230,230" fill="1" layer="-1.00" shape="814.732536,1167.363974 816.841932,1160.254872 808.097011,1157.706552 808.009462,1164.379396 808.060985,1165.994315 814.732536,1167.363974"/>
    <poly id="110778842" type="building" color="255,230,230" fill="1" layer="-1.00" shape="1059.752048,1152.400461 1069.465412,1155.714399 1072.280159,1148.639006 1066.431511,1146.605476 1061.905239,1145.081436 1059.752048,1152.400461"/>
    <poly id="110778843" type="building" color="255,230,230" fill="1" layer="-1.00" shape="893.698845,1215.063310 895.553352,1209.492632 901.674199,1211.523535 902.329457,1211.733565 901.377677,1214.596003 901.945473,1214.780993 901.042384,1217.500345 893.698845,1215.063310"/>
    <poly id="110778844" type="building" color="255,230,230" fill="1" layer="-1.00" shape="823.140444,1195.725145 821.094779,1206.374361 822.586247,1206.655528 831.818327,1208.685347 833.581608,1199.974197 835.487284,1200.413204 836.039784,1197.615916 835.601054,1197.535180 834.249188,1197.258457 823.335999,1194.896921 823.140444,1195.725145"/>
    <poly id="110778845" type="building" color="255,230,230" fill="1" layer="-1.00" shape="1063.998193,1080.861707 1052.761129,1077.810708 1054.866578,1069.221785 1057.217642,1059.850745 1069.275720,1063.450870 1064.704919,1078.536650 1063.998193,1080.861707"/>
    <poly id="110778846" type="building" color="255,230,230" fill="1" layer="-1.00" shape="788.476972,1116.271169 780.565190,1115.273704 782.346436,1101.378375 783.063913,1096.171985 783.426593,1093.791437 790.703756,1094.624049 789.382177,1102.169918 788.645195,1102.446845 788.407245,1104.375199 789.825006,1106.278411 788.476972,1116.271169"/>
    <poly id="110778847" type="building" color="255,230,230" fill="1" layer="-1.00" shape="1051.579100,1149.447212 1055.758881,1134.627102 1064.264820,1137.056927 1061.905239,1145.081436 1059.752048,1152.400461 1051.579100,1149.447212"/>
    <poly id="110778848" type="building" color="255,230,230" fill="1" layer="-1.00" shape="1032.547347,1144.500929 1047.511317,1147.615154 1049.247487,1139.303727 1039.748706,1137.331801 1034.290844,1136.189732 1032.547347,1144.500929"/>
    <poly id="110778849" type="building" color="255,230,230" fill="1" layer="-1.00" shape="813.595052,1321.724026 814.364548,1332.429559 824.389599,1331.725380 824.042967,1326.907878 827.721367,1326.646797 827.298879,1320.747649 825.456003,1320.878072 813.595052,1321.724026"/>
    <poly id="110778850" type="building" color="255,230,230" fill="1" layer="-1.00" shape="780.565190,1115.273704 771.349145,1113.889801 769.911476,1113.766128 772.001653,1099.869510 782.346436,1101.378375 780.565190,1115.273704"/>
    <poly id="110778851" type="building" color="255,230,230" fill="1" layer="-1.00" shape="898.621133,1254.695489 900.291211,1245.680979 881.199071,1239.175624 877.928735,1250.631373 898.621133,1254.695489"/>
    <poly id="110778852" type="building" color="255,230,230" fill="1" layer="-1.00" shape="829.065287,1098.182640 829.234119,1093.114538 833.220299,1093.586452 832.631784,1089.896103 841.893188,1090.780878 842.609804,1092.528251 841.675087,1103.858171 833.087393,1102.605449 829.065287,1098.182640"/>
    <poly id="110778853" type="building" color="255,230,230" fill="1" layer="-1.00" shape="808.513741,1101.221727 809.653781,1096.373709 802.692573,1095.551137 802.793143,1097.011853 802.615654,1100.043611 808.513741,1101.221727"/>
    <poly id="110778855" type="building" color="255,230,230" fill="1" layer="-1.00" shape="888.157121,1231.553520 896.351799,1234.284704 899.456866,1225.015531 897.295547,1224.290201 898.010863,1222.154545 891.977489,1220.148686 888.157121,1231.553520"/>
    <poly id="110778856" type="building" color="255,230,230" fill="1" layer="-1.00" shape="871.928313,1097.812815 872.532780,1088.308171 884.080904,1090.601020 882.687846,1098.077839 879.288952,1098.103027 871.928313,1097.812815"/>
    <poly id="110778857" type="building" color="255,230,230" fill="1" layer="-1.00" shape="829.919513,1218.649424 832.764608,1219.151741 833.607565,1214.394395 830.820185,1213.927295 829.919513,1218.649424"/>
    <poly id="110778858" type="building" color="255,230,230" fill="1" layer="-1.00" shape="809.741369,1204.210219 811.110310,1214.801334 820.672576,1217.086428 822.586247,1206.655528 821.094779,1206.374361 809.741369,1204.210219"/>
    <poly id="110778860" type="building" color="255,230,230" fill="1" layer="-1.00" shape="848.438463,1082.266609 848.211292,1084.317691 857.488636,1085.625789 858.549706,1075.178855 849.247553,1074.648789 848.438463,1082.266609"/>
    <poly id="110778861" type="building" color="255,230,230" fill="1" layer="-1.00" shape="811.029209,1086.214936 810.431658,1090.657447 803.768425,1090.178148 804.454498,1085.727331 811.029209,1086.214936"/>
    <poly id="110778863" type="building" color="255,230,230" fill="1" layer="-1.00" shape="808.491842,1186.869395 808.389064,1181.091698 819.796610,1183.635844 820.027221,1182.630721 826.138035,1182.669653 827.512036,1182.713432 827.348871,1186.680235 824.958688,1186.904483 824.836607,1188.658511 817.762471,1186.997861 808.491842,1186.869395"/>
    <poly id="110778864" type="amenity" color="237,199,199" fill="1" layer="-1.00" shape="825.485736,1131.580271 824.572502,1130.694468 823.873144,1131.406506 824.551341,1132.051173 824.166333,1136.055412 821.505860,1135.759253 820.829788,1135.047897 820.221790,1135.662712 820.715588,1136.323755 820.473732,1138.374370 820.224528,1140.424751 819.428236,1141.178205 819.974175,1141.818657 820.765155,1141.231925 823.224760,1141.599567 822.717676,1145.510909 822.040009,1146.234763 822.567356,1146.997011 823.357628,1146.432509 828.085174,1146.950294 828.133064,1147.986543 829.034345,1148.093142 829.175016,1147.140783 831.797683,1147.469120 832.152048,1148.581891 832.811919,1148.647420 833.256677,1147.615742 835.438485,1147.930034 835.681307,1148.850108 836.509112,1148.954366 836.836219,1148.152587 839.014574,1148.344384 839.388591,1149.302016 840.275177,1149.408149 840.521460,1148.603794 843.467422,1148.942438 843.370386,1151.064423 850.410928,1151.934082 850.949547,1147.956990 851.617211,1147.777997 851.721855,1146.802238 853.803997,1145.166301 854.523622,1145.434006 854.966079,1144.936307 854.306832,1144.158727 854.647234,1141.554951 855.509570,1141.037253 855.120769,1140.312796 854.548624,1140.494833 852.620544,1138.219306 853.092127,1137.500014 852.372945,1136.987550 851.731303,1137.734801 849.476015,1137.418162 849.554721,1136.563963 848.494622,1136.363292 848.368025,1137.104704 847.437706,1136.986051 847.661335,1135.046116 848.489411,1134.449444 847.933384,1133.664028 847.268372,1134.221392 842.379875,1133.676210 842.419362,1132.898645 841.564643,1132.715645 841.279142,1133.596632 838.651955,1133.179139 838.737298,1132.347404 837.726861,1132.203947 837.542811,1133.132672 834.937312,1132.726997 835.083207,1131.841561 834.006287,1131.707113 833.876504,1132.548558 831.208682,1132.252160 831.235951,1131.396322 830.261544,1131.276267 830.153805,1132.118415 825.485736,1131.580271"/>