<?xml version="1.0" encoding="UTF-8"?>

<!-- generated on 12/15/25 01:26:16 by Eclipse SUMO netconvert Version 1.5.0
<configuration xmlns:xsi="http://www.w3.org/2001/XMLSchema-instance" xsi:noNamespaceSchemaLocation="http://sumo.dlr.de/xsd/netconvertConfiguration.xsd">

    <input>
        <osm-files value="nuernberg_center_raw.osm"/>
    </input>

    <output>
        <output-file value="nuernberg_center.net.xml"/>
    </output>

    <projection>
        <proj.utm value="true"/>
    </projection>

    <tls_building>
        <tls.discard-simple value="true"/>
    </tls_building>

    <edge_removal>
        <keep-edges.by-vclass value="passenger"/>
        <remove-edges.isolated value="true"/>
    </edge_removal>

    <junctions>
        <no-turnarounds.tls value="true"/>
        <junctions.join value="true"/>
    </junctions>

    <report>
        <aggregate-warnings value="5"/>
    </report>

</configuration>
-->

<net version="1.3" junctionCornerDetail="5" limitTurnSpeed="5.50" xmlns:xsi="http://www.w3.org/2001/XMLSchema-instance" xsi:noNamespaceSchemaLocation="http://sumo.dlr.de/xsd/net_file.xsd">

    <location netOffset="-677444.24,-5403097.02" convBoundary="0.00,0.00,2370.91,2277.88" origBoundary="11.415122,48.752906,11.447237,48.775795" projParameter="+proj=utm +zone=32 +ellps=WGS84 +datum=WGS84 +units=m +no_defs"/>

    <type id="highway.bridleway" priority="1" numLanes="1" speed="2.78" allow="pedestrian" oneway="1" width="2.00"/>
    <type id="highway.bus_guideway" priority="1" numLanes="1" speed="27.78" allow="bus" oneway="1"/>
    <type id="highway.cycleway" priority="1" numLanes="1" speed="8.33" allow="bicycle" oneway="0" width="1.00"/>
    <type id="highway.footway" priority="1" numLanes="1" speed="2.78" allow="pedestrian" oneway="1" width="2.00"/>
    <type id="highway.ford" priority="1" numLanes="1" speed="2.78" allow="army" oneway="0"/>
    <type id="highway.living_street" priority="2" numLanes="1" speed="2.78" disallow="tram rail_urban rail rail_electric rail_fast ship" oneway="0"/>
    <type id="highway.motorway" priority="14" numLanes="2" speed="39.44" allow="private emergency authority army vip passenger hov taxi bus coach delivery truck trailer motorcycle evehicle custom1 custom2" oneway="1"/>
    <type id="highway.motorway_link" priority="9" numLanes="1" speed="22.22" allow="private emergency authority army vip passenger hov taxi bus coach delivery truck trailer motorcycle evehicle custom1 custom2" oneway="1"/>
    <type id="highway.path" priority="1" numLanes="1" speed="2.78" allow="pedestrian bicycle" oneway="1" width="2.00"/>
    <type id="highway.pedestrian" priority="1" numLanes="1" speed="2.78" allow="pedestrian" oneway="1" width="2.00"/>
    <type id="highway.primary" priority="12" numLanes="2" speed="27.78" disallow="tram rail_urban rail rail_electric rail_fast ship" oneway="0"/>
    <type id="highway.primary_link" priority="7" numLanes="1" speed="22.22" disallow="tram rail_urban rail rail_electric rail_fast ship" oneway="0"/>
    <type id="highway.raceway" priority="15" numLanes="2" speed="83.33" allow="vip" oneway="0"/>
    <type id="highway.residential" priority="3" numLanes="1" speed="13.89" disallow="tram rail_urban rail rail_electric rail_fast ship" oneway="0"/>
    <type id="highway.secondary" priority="11" numLanes="1" speed="27.78" disallow="tram rail_urban rail rail_electric rail_fast ship" oneway="0"/>
    <type id="highway.secondary_link" priority="6" numLanes="1" speed="22.22" disallow="tram rail_urban rail rail_electric rail_fast ship" oneway="0"/>
    <type id="highway.service" priority="1" numLanes="1" speed="5.56" allow="pedestrian delivery bicycle" oneway="0"/>
    <type id="highway.stairs" priority="1" numLanes="1" speed="1.39" allow="pedestrian" oneway="1" width="2.00"/>
    <type id="highway.step" priority="1" numLanes="1" speed="1.39" allow="pedestrian" oneway="1" width="2.00"/>
    <type id="highway.steps" priority="1" numLanes="1" speed="1.39" allow="pedestrian" oneway="1" width="2.00"/>
    <type id="highway.tertiary" priority="10" numLanes="1" speed="22.22" disallow="tram rail_urban rail rail_electric rail_fast ship" oneway="0"/>
    <type id="highway.tertiary_link" priority="5" numLanes="1" speed="22.22" disallow="tram rail_urban rail rail_electric rail_fast ship" oneway="0"/>
    <type id="highway.track" priority="1" numLanes="1" speed="5.56" disallow="tram rail_urban rail rail_electric rail_fast ship" oneway="0"/>
    <type id="highway.trunk" priority="13" numLanes="2" speed="27.78" disallow="pedestrian bicycle tram rail_urban rail rail_electric rail_fast ship" oneway="0"/>
    <type id="highway.trunk_link" priority="8" numLanes="1" speed="22.22" disallow="pedestrian bicycle tram rail_urban rail rail_electric rail_fast ship" oneway="0"/>
    <type id="highway.unclassified" priority="4" numLanes="1" speed="13.89" disallow="tram rail_urban rail rail_electric rail_fast ship" oneway="0"/>
    <type id="highway.unsurfaced" priority="1" numLanes="1" speed="8.33" disallow="tram rail_urban rail rail_electric rail_fast ship" oneway="0"/>
    <type id="railway.highspeed" priority="21" numLanes="1" speed="69.44" allow="rail_fast" oneway="1"/>
    <type id="railway.light_rail" priority="19" numLanes="1" speed="27.78" allow="rail_urban" oneway="1"/>
    <type id="railway.preserved" priority="16" numLanes="1" speed="27.78" allow="rail" oneway="1"/>
    <type id="railway.rail" priority="20" numLanes="1" speed="44.44" allow="rail" oneway="1"/>
    <type id="railway.subway" priority="18" numLanes="1" speed="27.78" allow="rail_urban" oneway="1"/>
    <type id="railway.tram" priority="17" numLanes="1" speed="13.89" allow="tram" oneway="1"/>

    <edge id=":1025587626_0" function="internal">
        <lane id=":1025587626_0_0" index="0" disallow="tram rail_urban rail rail_electric rail_fast ship" speed="13.89" length="0.77" shape="997.80,716.14 997.66,715.96 997.57,715.83 997.49,715.69 997.38,715.49"/>
    </edge>
    <edge id=":1025587626_1" function="internal">
        <lane id=":1025587626_1_0" index="0" disallow="tram rail_urban rail rail_electric rail_fast ship" speed="13.89" length="0.26" shape="1000.18,713.95 1000.22,714.02 1000.25,714.07 1000.28,714.11 1000.32,714.17"/>
    </edge>
    <edge id=":1031765029_0" function="internal">
        <lane id=":1031765029_0_0" index="0" disallow="tram rail_urban rail rail_electric rail_fast ship" speed="8.33" length="0.24" shape="815.56,1362.39 815.59,1362.63"/>
    </edge>
    <edge id=":1031988047_0" function="internal">
        <lane id=":1031988047_0_0" index="0" disallow="tram rail_urban rail rail_electric rail_fast ship" speed="8.33" length="0.24" shape="479.83,1262.40 480.05,1262.32"/>
    </edge>
    <edge id=":1031989147_0" function="internal">
        <lane id=":1031989147_0_0" index="0" disallow="tram rail_urban rail rail_electric rail_fast ship" speed="13.89" length="0.36" shape="736.05,1622.03 735.70,1622.10"/>
    </edge>
    <edge id=":1031989147_1" function="internal">
        <lane id=":1031989147_1_0" index="0" disallow="tram rail_urban rail rail_electric rail_fast ship" speed="13.89" length="0.12" shape="735.21,1618.93 735.33,1618.91"/>
    </edge>
    <edge id=":1051308709_0" function="internal">
        <lane id=":1051308709_0_0" index="0" disallow="tram rail_urban rail rail_electric rail_fast ship" speed="13.89" length="0.29" shape="1835.28,1216.79 1835.25,1217.10"/>
        <lane id=":1051308709_0_1" index="1" disallow="tram rail_urban rail rail_electric rail_fast ship" speed="13.89" length="0.29" shape="1832.09,1216.51 1832.06,1216.78"/>
    </edge>
    <edge id=":10732913395_0" function="internal">
        <lane id=":10732913395_0_0" index="0" disallow="tram rail_urban rail rail_electric rail_fast ship" speed="13.89" length="0.10" shape="1774.99,1625.48 1774.99,1625.48"/>
    </edge>
    <edge id=":10732913395_1" function="internal">
        <lane id=":10732913395_1_0" index="0" disallow="tram rail_urban rail rail_electric rail_fast ship" speed="13.89" length="0.10" shape="1777.72,1623.81 1777.72,1623.81"/>
    </edge>
    <edge id=":10735183934_0" function="internal">
        <lane id=":10735183934_0_0" index="0" disallow="tram rail_urban rail rail_electric rail_fast ship" speed="13.89" length="0.10" shape="1550.95,1081.51 1550.95,1081.51"/>
    </edge>
    <edge id=":10735183934_1" function="internal">
        <lane id=":10735183934_1_0" index="0" disallow="tram rail_urban rail rail_electric rail_fast ship" speed="13.89" length="0.10" shape="1553.48,1075.63 1553.48,1075.63"/>
        <lane id=":10735183934_1_1" index="1" disallow="tram rail_urban rail rail_electric rail_fast ship" speed="13.89" length="0.10" shape="1552.21,1078.57 1552.21,1078.57"/>
    </edge>
    <edge id=":1079366689_0" function="internal">
        <lane id=":1079366689_0_0" index="0" disallow="tram rail_urban rail rail_electric rail_fast ship" speed="7.92" length="0.15" shape="172.24,471.94 172.20,471.96 172.17,471.97 172.15,471.98 172.11,472.00"/>
    </edge>
    <edge id=":1079366689_1" function="internal">
        <lane id=":1079366689_1_0" index="0" disallow="tram rail_urban rail rail_electric rail_fast ship" speed="7.92" length="0.44" shape="170.55,469.21 170.67,469.14 170.74,469.10 170.83,469.07 170.94,469.01"/>
    </edge>
    <edge id=":1079366750_0" function="internal">
        <lane id=":1079366750_0_0" index="0" disallow="tram rail_urban rail rail_electric rail_fast ship" speed="13.89" length="0.31" shape="489.52,294.56 489.26,294.75"/>
        <lane id=":1079366750_0_1" index="1" disallow="tram rail_urban rail rail_electric rail_fast ship" speed="13.89" length="0.31" shape="487.64,291.97 487.40,292.14"/>
    </edge>
    <edge id=":1079366750_2" function="internal">
        <lane id=":1079366750_2_0" index="0" disallow="tram rail_urban rail rail_electric rail_fast ship" speed="13.89" length="0.28" shape="485.54,289.54 485.77,289.38"/>
    </edge>
    <edge id=":10983066665_0" function="internal">
        <lane id=":10983066665_0_0" index="0" disallow="tram rail_urban rail rail_electric rail_fast ship" speed="8.33" length="8.02" shape="1007.75,1513.80 1006.29,1511.92 1005.35,1510.56 1004.30,1509.32 1002.52,1507.77"/>
    </edge>
    <edge id=":10983066665_1" function="internal">
        <lane id=":10983066665_1_0" index="0" disallow="tram rail_urban rail rail_electric rail_fast ship" speed="8.33" length="8.40" shape="1005.00,1505.65 1007.24,1506.93 1009.06,1507.42 1010.75,1508.03 1012.64,1509.68"/>
        <lane id=":10983066665_1_1" index="1" disallow="tram rail_urban rail rail_electric rail_fast ship" speed="8.33" length="8.40" shape="1005.00,1505.65 1006.78,1507.21 1007.82,1508.47 1008.74,1509.84 1010.19,1511.74"/>
    </edge>
    <edge id=":11212589030_0" function="internal">
        <lane id=":11212589030_0_0" index="0" disallow="tram rail_urban rail rail_electric rail_fast ship" speed="13.89" length="0.30" shape="1906.98,568.45 1906.68,568.43"/>
    </edge>
    <edge id=":11212589031_0" function="internal">
        <lane id=":11212589031_0_0" index="0" disallow="tram rail_urban rail rail_electric rail_fast ship" speed="13.89" length="0.10" shape="1906.85,560.54 1906.85,560.54"/>
    </edge>
    <edge id=":11374957100_0" function="internal">
        <lane id=":11374957100_0_0" index="0" disallow="tram rail_urban rail rail_electric rail_fast ship" speed="13.89" length="0.10" shape="1294.49,1910.60 1294.49,1910.60"/>
    </edge>
    <edge id=":11374957100_1" function="internal">
        <lane id=":11374957100_1_0" index="0" disallow="tram rail_urban rail rail_electric rail_fast ship" speed="13.89" length="0.10" shape="1291.92,1908.68 1291.92,1908.68"/>
    </edge>
    <edge id=":11630777418_0" function="internal">
        <lane id=":11630777418_0_0" index="0" disallow="tram rail_urban rail rail_electric rail_fast ship" speed="13.89" length="0.30" shape="1154.23,1422.93 1154.02,1423.14"/>
    </edge>
    <edge id=":11630777418_1" function="internal">
        <lane id=":11630777418_1_0" index="0" disallow="tram rail_urban rail rail_electric rail_fast ship" speed="13.89" length="0.30" shape="1151.78,1420.85 1152.00,1420.64"/>
    </edge>
    <edge id=":11630777419_0" function="internal">
        <lane id=":11630777419_0_0" index="0" disallow="tram rail_urban rail rail_electric rail_fast ship" speed="13.89" length="0.10" shape="1175.95,1421.27 1175.95,1421.27"/>
    </edge>
    <edge id=":11630777419_1" function="internal">
        <lane id=":11630777419_1_0" index="0" disallow="tram rail_urban rail rail_electric rail_fast ship" speed="13.89" length="0.10" shape="1178.11,1418.91 1178.11,1418.90"/>
    </edge>
    <edge id=":11630777420_0" function="internal">
        <lane id=":11630777420_0_0" index="0" disallow="tram rail_urban rail rail_electric rail_fast ship" speed="13.89" length="0.30" shape="1179.48,1392.04 1179.31,1392.29"/>
    </edge>
    <edge id=":11630777420_1" function="internal">
        <lane id=":11630777420_1_0" index="0" disallow="tram rail_urban rail rail_electric rail_fast ship" speed="13.89" length="0.30" shape="1176.66,1390.50 1176.82,1390.25"/>
    </edge>
    <edge id=":11630777421_0" function="internal">
        <lane id=":11630777421_0_0" index="0" disallow="tram rail_urban rail rail_electric rail_fast ship" speed="5.56" length="0.30" shape="1247.95,1203.60 1248.02,1203.89"/>
    </edge>
    <edge id=":11630777422_0" function="internal">
        <lane id=":11630777422_0_0" index="0" disallow="tram rail_urban rail rail_electric rail_fast ship" speed="13.89" length="0.10" shape="160.81,1000.08 160.81,1000.08"/>
    </edge>
    <edge id=":11630777422_1" function="internal">
        <lane id=":11630777422_1_0" index="0" disallow="tram rail_urban rail rail_electric rail_fast ship" speed="13.89" length="0.10" shape="158.28,998.11 158.28,998.11"/>
    </edge>
    <edge id=":11630777423_0" function="internal">
        <lane id=":11630777423_0_0" index="0" disallow="tram rail_urban rail rail_electric rail_fast ship" speed="13.89" length="0.99" shape="186.67,971.23 187.02,970.30"/>
    </edge>
    <edge id=":11630777423_1" function="internal">
        <lane id=":11630777423_1_0" index="0" disallow="tram rail_urban rail rail_electric rail_fast ship" speed="13.89" length="0.99" shape="184.03,969.16 183.68,970.09"/>
    </edge>
    <edge id=":11630777424_0" function="internal">
        <lane id=":11630777424_0_0" index="0" disallow="tram rail_urban rail rail_electric rail_fast ship" speed="8.33" length="0.30" shape="205.25,979.77 204.95,979.81"/>
        <lane id=":11630777424_0_1" index="1" disallow="tram rail_urban rail rail_electric rail_fast ship" speed="8.33" length="0.30" shape="204.87,976.60 204.57,976.63"/>
    </edge>
    <edge id=":11630777424_2" function="internal">
        <lane id=":11630777424_2_0" index="0" disallow="tram rail_urban rail rail_electric rail_fast ship" speed="8.33" length="0.30" shape="204.20,973.45 204.50,973.42"/>
    </edge>
    <edge id=":11630777425_0" function="internal">
        <lane id=":11630777425_0_0" index="0" disallow="tram rail_urban rail rail_electric rail_fast ship" speed="8.33" length="0.10" shape="797.77,1937.89 797.76,1937.83"/>
    </edge>
    <edge id=":11630777425_1" function="internal">
        <lane id=":11630777425_1_0" index="0" disallow="tram rail_urban rail rail_electric rail_fast ship" speed="8.33" length="5.66" shape="799.12,1931.87 799.70,1933.45 800.13,1934.52 800.51,1935.61 800.90,1937.24"/>
    </edge>
    <edge id=":11630777426_0" function="internal">
        <lane id=":11630777426_0_0" index="0" disallow="tram rail_urban rail rail_electric rail_fast ship" speed="13.89" length="0.84" shape="791.53,1934.29 792.30,1933.96"/>
        <lane id=":11630777426_0_1" index="1" disallow="tram rail_urban rail rail_electric rail_fast ship" speed="13.89" length="0.84" shape="790.26,1931.35 791.04,1931.01"/>
    </edge>
    <edge id=":11630777426_2" function="internal">
        <lane id=":11630777426_2_0" index="0" disallow="tram rail_urban rail rail_electric rail_fast ship" speed="13.89" length="0.86" shape="788.52,1925.13 787.74,1925.47"/>
        <lane id=":11630777426_2_1" index="1" disallow="tram rail_urban rail rail_electric rail_fast ship" speed="13.89" length="0.86" shape="789.78,1928.07 789.00,1928.41"/>
    </edge>
    <edge id=":11630777427_0" function="internal">
        <lane id=":11630777427_0_0" index="0" disallow="tram rail_urban rail rail_electric rail_fast ship" speed="13.89" length="0.10" shape="803.86,1929.29 803.92,1929.26"/>
        <lane id=":11630777427_0_1" index="1" disallow="tram rail_urban rail rail_electric rail_fast ship" speed="13.89" length="0.10" shape="802.73,1926.30 802.78,1926.28"/>
    </edge>
    <edge id=":11630777427_2" function="internal">
        <lane id=":11630777427_2_0" index="0" disallow="tram rail_urban rail rail_electric rail_fast ship" speed="13.89" length="0.10" shape="800.50,1920.30 800.45,1920.31"/>
        <lane id=":11630777427_2_1" index="1" disallow="tram rail_urban rail rail_electric rail_fast ship" speed="13.89" length="0.10" shape="801.64,1923.29 801.59,1923.30"/>
    </edge>
    <edge id=":11630878988_0" function="internal">
        <lane id=":11630878988_0_0" index="0" disallow="tram rail_urban rail rail_electric rail_fast ship" speed="8.33" length="0.30" shape="922.94,605.07 922.67,605.19"/>
        <lane id=":11630878988_0_1" index="1" disallow="tram rail_urban rail rail_electric rail_fast ship" speed="8.33" length="0.30" shape="921.58,602.17 921.31,602.30"/>
    </edge>
    <edge id=":11630878988_2" function="internal">
        <lane id=":11630878988_2_0" index="0" disallow="tram rail_urban rail rail_electric rail_fast ship" speed="8.33" length="0.30" shape="918.58,596.51 918.85,596.38"/>
        <lane id=":11630878988_2_1" index="1" disallow="tram rail_urban rail rail_electric rail_fast ship" speed="8.33" length="0.30" shape="919.94,599.40 920.22,599.28"/>
    </edge>
    <edge id=":11630878989_0" function="internal">
        <lane id=":11630878989_0_0" index="0" disallow="tram rail_urban rail rail_electric rail_fast ship" speed="5.56" length="0.30" shape="816.85,774.87 816.59,774.72"/>
    </edge>
    <edge id=":11630878989_1" function="internal">
        <lane id=":11630878989_1_0" index="0" disallow="tram rail_urban rail rail_electric rail_fast ship" speed="5.56" length="0.30" shape="818.21,771.96 818.47,772.11"/>
    </edge>
    <edge id=":11630878990_0" function="internal">
        <lane id=":11630878990_0_0" index="0" disallow="tram rail_urban rail rail_electric rail_fast ship" speed="5.56" length="0.30" shape="789.07,773.06 788.93,773.32"/>
    </edge>
    <edge id=":11630878990_1" function="internal">
        <lane id=":11630878990_1_0" index="0" disallow="tram rail_urban rail rail_electric rail_fast ship" speed="5.56" length="0.30" shape="786.14,771.75 786.29,771.48"/>
    </edge>
    <edge id=":11630879011_0" function="internal">
        <lane id=":11630879011_0_0" index="0" disallow="tram rail_urban rail rail_electric rail_fast ship" speed="13.89" length="0.30" shape="1821.59,10.63 1821.40,10.86"/>
    </edge>
    <edge id=":11630879011_1" function="internal">
        <lane id=":11630879011_1_0" index="0" disallow="tram rail_urban rail rail_electric rail_fast ship" speed="13.89" length="0.30" shape="1818.97,8.77 1819.17,8.55"/>
    </edge>
    <edge id=":1168659704_0" function="internal">
        <lane id=":1168659704_0_0" index="0" disallow="tram rail_urban rail rail_electric rail_fast ship" speed="2.78" length="4.67" shape="947.33,968.42 948.28,969.51 948.47,970.38 947.87,971.05 946.51,971.52"/>
    </edge>
    <edge id=":1168659850_0" function="internal">
        <lane id=":1168659850_0_0" index="0" disallow="tram rail_urban rail rail_electric rail_fast ship" speed="11.11" length="0.32" shape="309.54,929.45 309.52,929.35 309.51,929.29 309.49,929.23 309.46,929.14"/>
    </edge>
    <edge id=":1168659850_1" function="internal">
        <lane id=":1168659850_1_0" index="0" disallow="tram rail_urban rail rail_electric rail_fast ship" speed="11.11" length="0.96" shape="312.48,928.07 312.57,928.34 312.63,928.53 312.67,928.72 312.71,929.00"/>
    </edge>
    <edge id=":11787969715_0" function="internal">
        <lane id=":11787969715_0_0" index="0" disallow="tram rail_urban rail rail_electric rail_fast ship" speed="8.33" length="0.10" shape="476.42,795.44 476.42,795.44"/>
    </edge>
    <edge id=":11865814959_0" function="internal">
        <lane id=":11865814959_0_0" index="0" disallow="tram rail_urban rail rail_electric rail_fast ship" speed="8.33" length="0.10" shape="781.54,629.22 781.54,629.22"/>
    </edge>
    <edge id=":11923502877_0" function="internal">
        <lane id=":11923502877_0_0" index="0" disallow="tram rail_urban rail rail_electric rail_fast ship" speed="13.89" length="7.76" shape="1591.62,1818.62 1593.61,1819.51 1595.13,1819.74 1596.69,1819.91 1598.78,1820.63"/>
        <lane id=":11923502877_0_1" index="1" disallow="tram rail_urban rail rail_electric rail_fast ship" speed="13.89" length="7.76" shape="1589.97,1821.36 1592.05,1822.31 1593.63,1822.57 1595.24,1822.77 1597.42,1823.52"/>
        <lane id=":11923502877_0_2" index="2" disallow="tram rail_urban rail rail_electric rail_fast ship" speed="13.89" length="7.76" shape="1589.97,1821.36 1591.85,1822.77 1592.94,1824.02 1594.07,1825.20 1596.05,1826.41"/>
    </edge>
    <edge id=":1193967973_0" function="internal">
        <lane id=":1193967973_0_0" index="0" disallow="tram rail_urban rail rail_electric rail_fast ship" speed="13.89" length="1.13" shape="1014.94,1555.10 1014.66,1555.28 1014.46,1555.40 1014.26,1555.49 1013.94,1555.61"/>
    </edge>
    <edge id=":1193967973_1" function="internal">
        <lane id=":1193967973_1_0" index="0" disallow="tram rail_urban rail rail_electric rail_fast ship" speed="13.89" length="0.38" shape="1012.81,1552.62 1012.92,1552.58 1012.99,1552.55 1013.05,1552.51 1013.15,1552.45"/>
    </edge>
    <edge id=":1195228661_0" function="internal">
        <lane id=":1195228661_0_0" index="0" disallow="tram rail_urban rail rail_electric rail_fast ship" speed="8.33" length="0.22" shape="235.09,974.72 235.02,974.73 234.98,974.73 234.94,974.73 234.87,974.74"/>
    </edge>
    <edge id=":1195228871_0" function="internal">
        <lane id=":1195228871_0_0" index="0" disallow="tram rail_urban rail rail_electric rail_fast ship" speed="8.33" length="0.51" shape="241.87,973.53 241.75,973.61 241.65,973.64 241.54,973.64 241.38,973.66"/>
    </edge>
    <edge id=":1196936357_0" function="internal">
        <lane id=":1196936357_0_0" index="0" disallow="tram rail_urban rail rail_electric rail_fast ship" speed="5.56" length="10.31" shape="756.70,832.19 751.65,841.18"/>
    </edge>
    <edge id=":1196936357_1" function="internal">
        <lane id=":1196936357_1_0" index="0" disallow="tram rail_urban rail rail_electric rail_fast ship" speed="3.65" length="2.34" shape="756.70,832.19 755.42,832.86 754.53,832.83"/>
    </edge>
    <edge id=":1196936357_6" function="internal">
        <lane id=":1196936357_6_0" index="0" disallow="tram rail_urban rail rail_electric rail_fast ship" speed="3.65" length="2.34" shape="754.53,832.83 754.02,832.09 753.89,830.65"/>
    </edge>
    <edge id=":1196936357_2" function="internal">
        <lane id=":1196936357_2_0" index="0" disallow="tram rail_urban rail rail_electric rail_fast ship" speed="6.70" length="8.56" shape="746.53,833.03 748.88,833.58 750.89,833.37 752.56,832.39 753.89,830.65"/>
    </edge>
    <edge id=":1196936357_3" function="internal">
        <lane id=":1196936357_3_0" index="0" disallow="tram rail_urban rail rail_electric rail_fast ship" speed="6.82" length="11.28" shape="746.53,833.03 749.88,834.66 751.85,836.57 752.44,838.74 751.65,841.18"/>
    </edge>
    <edge id=":1196936357_4" function="internal">
        <lane id=":1196936357_4_0" index="0" disallow="tram rail_urban rail rail_electric rail_fast ship" speed="5.56" length="10.25" shape="748.87,839.59 753.89,830.65"/>
    </edge>
    <edge id=":1196936357_5" function="internal">
        <lane id=":1196936357_5_0" index="0" disallow="tram rail_urban rail rail_electric rail_fast ship" speed="3.65" length="2.34" shape="748.87,839.59 750.16,838.95 751.06,839.00"/>
    </edge>
    <edge id=":1196936357_7" function="internal">
        <lane id=":1196936357_7_0" index="0" disallow="tram rail_urban rail rail_electric rail_fast ship" speed="3.65" length="2.34" shape="751.06,839.00 751.55,839.74 751.65,841.18"/>
    </edge>
    <edge id=":1197035348_0" function="internal">
        <lane id=":1197035348_0_0" index="0" disallow="tram rail_urban rail rail_electric rail_fast ship" speed="3.65" length="4.67" shape="861.38,130.73 861.10,129.31 861.38,128.47 862.23,128.19 863.64,128.47"/>
    </edge>
    <edge id=":1197061995_0" function="internal">
        <lane id=":1197061995_0_0" index="0" disallow="tram rail_urban rail rail_electric rail_fast ship" speed="2.78" length="4.67" shape="840.23,853.72 839.49,852.48 839.47,851.59 840.17,851.04 841.60,850.82"/>
    </edge>
    <edge id=":1197458639_0" function="internal">
        <lane id=":1197458639_0_0" index="0" disallow="tram rail_urban rail rail_electric rail_fast ship" speed="13.89" length="0.27" shape="1695.23,173.83 1695.49,174.14"/>
        <lane id=":1197458639_0_1" index="1" disallow="tram rail_urban rail rail_electric rail_fast ship" speed="13.89" length="0.27" shape="1692.85,175.96 1692.93,176.06"/>
    </edge>
    <edge id=":12006183572_0" function="internal">
        <lane id=":12006183572_0_0" index="0" disallow="tram rail_urban rail rail_electric rail_fast ship" speed="8.33" length="0.10" shape="1814.11,1997.94 1814.11,1997.94"/>
    </edge>
    <edge id=":12006183572_1" function="internal">
        <lane id=":12006183572_1_0" index="0" disallow="tram rail_urban rail rail_electric rail_fast ship" speed="8.33" length="0.10" shape="1811.00,1997.21 1811.00,1997.21"/>
    </edge>
    <edge id=":12006183580_0" function="internal">
        <lane id=":12006183580_0_0" index="0" disallow="tram rail_urban rail rail_electric rail_fast ship" speed="8.33" length="0.31" shape="1744.22,1986.34 1744.20,1986.65"/>
    </edge>
    <edge id=":12006183580_1" function="internal">
        <lane id=":12006183580_1_0" index="0" disallow="tram rail_urban rail rail_electric rail_fast ship" speed="8.33" length="0.26" shape="1741.01,1986.35 1741.03,1986.09"/>
    </edge>
    <edge id=":12006658574_0" function="internal">
        <lane id=":12006658574_0_0" index="0" disallow="tram rail_urban rail rail_electric rail_fast ship" speed="13.89" length="0.30" shape="1745.20,285.16 1745.05,284.90"/>
        <lane id=":12006658574_0_1" index="1" disallow="tram rail_urban rail rail_electric rail_fast ship" speed="13.89" length="0.30" shape="1747.99,283.60 1747.85,283.34"/>
        <lane id=":12006658574_0_2" index="2" disallow="tram rail_urban rail rail_electric rail_fast ship" speed="13.89" length="0.30" shape="1750.78,282.04 1750.64,281.78"/>
    </edge>
    <edge id=":12006658575_0" function="internal">
        <lane id=":12006658575_0_0" index="0" disallow="tram rail_urban rail rail_electric rail_fast ship" speed="13.89" length="0.17" shape="1735.43,282.93 1735.29,283.02"/>
    </edge>
    <edge id=":12006658575_1" function="internal">
        <lane id=":12006658575_1_0" index="0" disallow="tram rail_urban rail rail_electric rail_fast ship" speed="13.89" length="0.29" shape="1733.68,280.25 1733.93,280.11"/>
    </edge>
    <edge id=":1205464844_0" function="internal">
        <lane id=":1205464844_0_0" index="0" disallow="tram rail_urban rail rail_electric rail_fast ship" speed="13.89" length="0.31" shape="148.77,1844.28 148.78,1844.18 148.79,1844.11 148.81,1844.05 148.82,1843.95"/>
        <lane id=":1205464844_0_1" index="1" disallow="tram rail_urban rail rail_electric rail_fast ship" speed="13.89" length="0.31" shape="151.97,1844.28 151.98,1844.20 151.99,1844.14 152.01,1844.09 152.01,1844.01"/>
    </edge>
    <edge id=":1205464844_2" function="internal">
        <lane id=":1205464844_2_0" index="0" disallow="tram rail_urban rail rail_electric rail_fast ship" speed="13.89" length="0.16" shape="155.16,1844.11 155.16,1844.16 155.16,1844.19 155.17,1844.23 155.17,1844.27"/>
    </edge>
    <edge id=":1205464847_0" function="internal">
        <lane id=":1205464847_0_0" index="0" disallow="tram rail_urban rail rail_electric rail_fast ship" speed="13.89" length="0.31" shape="309.46,1828.97 309.36,1828.95"/>
        <lane id=":1205464847_0_1" index="1" disallow="tram rail_urban rail rail_electric rail_fast ship" speed="13.89" length="0.31" shape="310.40,1825.92 310.11,1825.84"/>
        <lane id=":1205464847_0_2" index="2" disallow="tram rail_urban rail rail_electric rail_fast ship" speed="13.89" length="0.31" shape="311.34,1822.86 310.85,1822.72"/>
    </edge>
    <edge id=":12095883620_0" function="internal">
        <lane id=":12095883620_0_0" index="0" disallow="tram rail_urban rail rail_electric rail_fast ship" speed="3.65" length="4.67" shape="1581.89,94.37 1581.15,93.13 1581.14,92.24 1581.84,91.69 1583.27,91.48"/>
    </edge>
    <edge id=":12135446542_0" function="internal">
        <lane id=":12135446542_0_0" index="0" disallow="tram rail_urban rail rail_electric rail_fast ship" speed="3.65" length="4.67" shape="919.72,61.67 921.16,61.73 921.92,62.20 922.00,63.09 921.39,64.40"/>
    </edge>
    <edge id=":1214907576_0" function="internal">
        <lane id=":1214907576_0_0" index="0" disallow="tram rail_urban rail rail_electric rail_fast ship" speed="8.33" length="0.31" shape="748.50,1288.63 748.19,1288.60"/>
    </edge>
    <edge id=":1214907576_1" function="internal">
        <lane id=":1214907576_1_0" index="0" disallow="tram rail_urban rail rail_electric rail_fast ship" speed="8.33" length="0.27" shape="748.61,1285.42 748.87,1285.46"/>
    </edge>
    <edge id=":1214907578_0" function="internal">