<?xml version="1.0" encoding="UTF-8"?>

<!-- generated on 12/15/25 01:27:34 by Eclipse SUMO duarouter Version 1.5.0
<configuration xmlns:xsi="http://www.w3.org/2001/XMLSchema-instance" xsi:noNamespaceSchemaLocation="http://sumo.dlr.de/xsd/duarouterConfiguration.xsd">

    <input>
        <net-file value="nuernberg_center.net.xml"/>
        <route-files value="nuernberg_center.trips.xml"/>
    </input>

    <output>
        <output-file value="nuernberg_center.rou.xml"/>
        <alternatives-output value="nuernberg_center.rou.alt.xml"/>
    </output>

    <report>
        <ignore-errors value="true"/>
    </report>

</configuration>
-->

<routes xmlns:xsi="http://www.w3.org/2001/XMLSchema-instance" xsi:noNamespaceSchemaLocation="http://sumo.dlr.de/xsd/routes_file.xsd">
    <vehicle id="0" depart="0.00">
        <route edges="32229975#2 37451605 -32202011 51856496#6 51856496#7 33102490#0 33102490#1 137685135 204388144#0 204388144#1 204388144#2 18909061#0 18909061#1 18909061#2 389831363 914222946 893091818 32061928#0 32061928#1 32061928#2 32061928#3 32061928#4 32061928#5 32061928#6 32061928#7 389840420#0 389840420#1 1084717760#0 1084717760#1 1084717760#2 1084717760#3 1084717759#0 1084717759#1 1084717759#2 1084717759#3 24972185#0 24972185#1 24972185#2 24972185#3 24972185#4 24972185#5 24972185#6 24972185#7"/>
    </vehicle>
    <vehicle id="1" depart="2.00">
        <route edges="32229976 32229975#1 32229975#2 37451605 -32202011 -51856496#5 -51856496#4 -51856496#3 -51856496#2 -51856496#1 -51856496#0 -888669950 -390282481 -885529290 -156923526#1 -156923526#0 -10425610#2 -10425610#1 -10425610#0 389831364#0 389831364#1 389831364#2 542617943 877649796 825445496 1023430509 749560275 749560274#0 749560274#1 885513468#0 885513468#1 32350852#0 32350852#1 976870176#0 976870176#1 976870176#2 978223049#0 978223049#1 978223034 161678034#0 161678034#1 979851462#0 979851462#1 888357490 -888669962 -841388880#2 -841388880#1 -841388880#0 24977473 1199679352#0 1199679352#1 1199679352#2 -1199679352#2 -1199679352#1"/>
    </vehicle>
    <vehicle id="2" depart="4.00">
        <route edges="145069331 145069287#0 145069287#1 145069287#2 -103512667#0 103512671 103512664 103512656 -1421617485#1 -1421617485#0 -18909064 -204388144#2 -204388144#1 -204388144#0 -137685135 -33102490#1 -33102490#0 -51856496#7 -51856496#6 -51856496#5 -51856496#4 -51856496#3 -51856496#2 -51856496#1 -51856496#0 -888669950 -390282481 -885529290 -156923526#1 -156923526#0 -10425610#2 -10425610#1 -10425610#0 389831364#0 389831364#1 389831364#2 32124561 718481103#0 718481103#1 718481103#2 -887476722 -32201044#2 24872465 208445147 145069268"/>
    </vehicle>
    <vehicle id="3" depart="6.00">
        <route edges="-1293090536#0 -168243629 -168243630#1 -168243630#0 718481093 31624236#0 31624236#1 1293090534 1161152719 354967544#0 354967544#1 354967544#2 354967544#3 816754718 1066379866 950184988 816754703#0 816754703#1 816754703#2 201956818 718481094#0 718481094#1 718481096#0 718481096#1 718481096#2 164051398 4324821 4324823 203971379 718481100 -54154922#2 -54154922#1 -54154922#0 -1199679352#2 -1199679352#1 -1199679352#0 -24977473 841388880#0 841388880#1 841388880#2 888669962 -888357490 -979851462#1 -979851462#0 -161678034#1 -161678034#0 -978223034 882941547#0 882941547#1 1426236343 978223045 -976870176#2 -976870176#1 -976870176#0 -32350852#1 -32350852#0 -885513468#1 -885513468#0 -749560274#1 -749560274#0 -749560275 -1023430509 -825445496 -877649796 -542617943 -389831364#2 -389831364#1 -389831364#0 10425610#0 10425610#1 10425610#2 156923526#0 156923526#1 885529290 390282481 888669950 51856496#0 51856496#1 51856496#2 51856496#3 51856496#4 51856496#5 51856496#6 51856496#7 33102490#0 33102490#1 137685135 204388144#0 204388144#1 204388144#2 18909064 1421617485#0 1421617485#1 -1421617485#1 -1421617485#0"/>
    </vehicle>
    <vehicle id="4" depart="8.00">
        <route edges="145069270#0 145069270#1 145069270#2 145069298 1323903562#0 1323903562#1 849455034#4 145069280 -145069391 145069286 32229741 32229742#0 32229742#1 32229742#2 32229742#3 32229742#4 145069384 -37649447#1 -37649447#0 -32202011 51856496#6 51856496#7 33102490#0 33102490#1 137685135 204388144#0 204388144#1 204388144#2 18909061#0 18909061#1 18909061#2 18909063"/>
    </vehicle>
    <vehicle id="5" depart="10.00">
        <route edges="145069280 145069373 279408222 279408220#0 279408220#1 279408220#2 -887661222#2 -887661222#1 -887661222#0 -889393574#1 -889393574#0 -1215634476#1 -1215634476#0 -718481107 -749560273 -749560261 749560262 749560263#0 749560263#1 749560274#0 749560274#1 885513468#0 885513468#1 32350852#0 32350852#1 976870176#0 976870176#1 976870176#2 1023430510#0 1023430510#1 978223044 -24983010 -950185008 984732467#0 984732467#1 145069303#0 145069303#1 145069303#2 -950185007#2 -950185007#1 -950185007#0 -32009683#2 -32009683#1 -32009683#0 -32009682 -29048562#2 -29048562#1 -29048562#0 1389763707#0 1389763707#1 1389763707#2 24537982#0 24537982#1 266565302#0 266565302#1 836209363#0 836209363#1 266565299 266565295#0 266565295#1 266565295#2 266565295#3 266565295#4 266565295#5 266565295#6 266565295#7 32999435#0 32999435#1 32124637#0 32124637#1 32124635#0 32124635#1 726514443 914485582#0 914485582#1 914485582#2 914485582#3"/>
    </vehicle>
    <vehicle id="6" depart="12.00">
        <route edges="24537982#0 24537982#1 266565302#0 266565302#1 836209363#0 836209363#1 266565299 266565295#0 266565295#1 266565295#2 266565295#3 266565295#4 266565295#5 266565295#6 266565295#7 32999435#0 32999435#1 32124637#0 32124637#1 32124635#0 32124635#1 726514443 914485582#0 914485582#1 914485582#2 914485582#3 914485582#4 837030917#0 837030917#1 51857517#0 51857517#1 51857517#2 51857518#0"/>
    </vehicle>
    <vehicle id="7" depart="14.00">
        <route edges="984732467#0 984732467#1 26973015#0 26973015#1 -987493081 -24692391#1 -24692391#0 144659495 144659489 24762523#0 24762523#1 1269164995 32259255 31773007 77670297 52572753#0 52572753#1 32924042"/>
    </vehicle>
    <vehicle id="8" depart="16.00">
        <route edges="1421617485#1 -1421617485#1 -1421617485#0 -18909064 18909061#0 18909061#1 18909061#2 389831363 914222946 893091818 32061928#0 32061928#1 -32061928#1"/>
    </vehicle>
    <vehicle id="9" depart="18.00">
        <route edges="-145069303#1 -145069303#0 26973015#0 26973015#1 950185008 24983010 882941546 978223049#0 978223049#1 978223034 161678034#0 161678034#1 979851462#0 979851462#1 888357490 -888669962 -841388880#2 -841388880#1 -841388880#0 24977473 1199679352#0 1199679352#1 1199679352#2 54154922#0 54154922#1 54154922#2 26071515 4324820 4268817 164051399 201956817 33279254#0"/>
    </vehicle>
    <vehicle id="10" depart="20.00">
        <route edges="-815662202 -29458097#2 -29458097#1 -29458097#0 -1084717760#3 -1084717760#2 -1084717760#1 -1084717760#0 -389840420#1 -389840420#0 -32061928#7 -32061928#6 -32061928#5 32061928#5"/>
    </vehicle>
    <vehicle id="11" depart="22.00">
        <route edges="-20588641#3 28124729#0 28124729#1 354967544#1 354967544#2 354967544#3 816754718 1066379866 950184988 816754703#0 816754703#1 816754703#2 201956818 718481094#0 718481094#1 718481096#0 718481096#1 718481096#2 164051398 4324821 4324823 203971379 718481100 -54154922#2 -54154922#1 -54154922#0 -42745461#1 -42745461#0 -42745460 -28132014#2 -28132014#1 -28132014#0 -814691982 -1186977745#1 -1186977745#0 -116765457 -914485584 -137463475 137463477#0 137463477#1 137463477#2 305390325#0 305390325#1 305390325#2 305390325#3 266567304#0 266567304#1 266567304#2 814691986 64464420 25955089 844743950 64464414#0 64464414#1 64464432#0 64464432#1 814691990 -24991571 -24991573 -11014139#2 -11014139#1 -11014139#0 -32009683#2 -32009683#1 -32009683#0 -32009682 -29048562#2 -29048562#1 -29048562#0 -24972185#7 -24972185#6 -24972185#5 -24972185#4 -24972185#3 -24972185#2 -24972185#1 -24972185#0 -1084717759#3 -1084717759#2 -1084717759#1 -1084717759#0 29458097#0 29458097#1 29458097#2 815662202 31343381#0 51856495#0 51856495#1 51856495#2 51856495#3 891497946#0 891497946#1 891497946#2 29458096#0 -27825654#2 -27825654#1 -27825654#0"/>
    </vehicle>
    <vehicle id="12" depart="24.00">
        <route edges="-144659496 -144659492#1 -144659492#0 32020916#0 32020916#1 77912233 107671230 105482067 32200416 107671228 29027840 77912270 77912237 32200414 887476720 29027839 1182776444 1182776443 31343367 1389763707#0 1389763707#1 1389763707#2 24537982#0 24537982#1 266565302#0 266565302#1 836209359#0"/>
    </vehicle>
    <vehicle id="13" depart="26.00">
        <route edges="841388879#1 841388879#2 841388875 785039016 10425611 203971380 -37480109 -54154921#4 -54154921#3 -54154921#2 -54154921#1 -54154921#0 -42745461#1 -42745461#0 -42745460 -28132014#2 -28132014#1 -28132014#0 -814691982 -1186977745#1 -1186977745#0 -116765457 -914485584 -137463475 137463477#0 137463477#1 137463477#2 25902677#0 25902677#1 1285343851 137463474#0 137463474#1 137463474#2 -137463474#2"/>
    </vehicle>
    <vehicle id="14" depart="28.00">
        <route edges="-942490626#0 -20588641#5 -20588641#4 -20588641#3 28124729#0 28124729#1 354967544#1 354967544#2 354967544#3 816754718 1066379866 950184988 816754703#0 816754703#1 816754703#2 201956818 718481094#0 718481094#1 718481096#0 718481096#1 718481096#2 164051398 4324821 4324823 203971379 718481100 -54154922#2 -54154922#1 -54154922#0 -42745461#1 -42745461#0 -42745460 -28132014#2 -28132014#1 -28132014#0 -814691982 -1186977745#1 -1186977745#0 -116765457 -914485584 -137463475 137463477#0 137463477#1 137463477#2 305390325#0 305390325#1 305390325#2 305390325#3 266567304#0 266567304#1 266567304#2 814691986 64464420 25955089 844743950 64464414#0 64464414#1 64464432#0 64464432#1 814691990 -24991571 -24991573 -11014139#2 -11014139#1 -11014139#0 -32009683#2 -32009683#1 -32009683#0 -32009682 -29048562#2 -29048562#1 -29048562#0 -24972185#7 -24972185#6 -24972185#5 -24972185#4 -24972185#3 -24972185#2 -24972185#1 -24972185#0 -1084717759#3 -1084717759#2 -1084717759#1 -1084717759#0 -1084717760#3 -1084717760#2 -1084717760#1 -1084717760#0 -389840420#1 -389840420#0 -32061928#7 -32061928#6 -32061928#5 24599188#0 24599188#1"/>
    </vehicle>
    <vehicle id="15" depart="30.00">
        <route edges="204388144#2 18909061#0 18909061#1 18909061#2 389831363 914222946 893091818 32061928#0 32061928#1 32061928#2 32061928#3 32061928#4 32061928#5 32061928#6 32061928#7 389840420#0 389840420#1 1084717760#0 1084717760#1 1084717760#2 1084717760#3 1084717759#0 1084717759#1 1084717759#2 1084717759#3 24972185#0 24972185#1 24972185#2 24972185#3 24972185#4 24972185#5 24972185#6 24972185#7 29048562#0 29048562#1 29048562#2 32009682 32009683#0 32009683#1 32009683#2 950185007#0 950185007#1 950185007#2 -145069303#2 -145069303#1 -145069303#0 26973015#0 26973015#1 -987493081 -24692391#1 -24692391#0 144659495 32200762#0 -28268964"/>
    </vehicle>
    <vehicle id="16" depart="32.00">
        <route edges="24972185#5 24972185#6 24972185#7 29048562#0 29048562#1 29048562#2 32009682 32009683#0 32009683#1 32009683#2 950185007#0 950185007#1 950185007#2 -145069303#2 -145069303#1 -145069303#0 26973015#0 26973015#1 950185008 24983010 882941546 -976870176#2 -976870176#1 -976870176#0 -32350852#1 -32350852#0 -885513468#1 -885513468#0 -749560274#1 -749560274#0 -749560275 -1023430509 -825445496 -877649796 32225921 718481103#0 718481103#1 718481103#2 233673423#0 233673423#1 28418763 -379723624#5 -379723624#4 -379723624#3 -379723624#2 -379723624#1 -379723624#0 -32923867#5 -32923867#4 -32923867#3 -32923867#2 -32923867#1 31362504#0 31362504#1 31362504#2 31362504#3 31362504#4 31362504#5 31362504#6 -31362504#6 -31362504#5 -31362504#4"/>
    </vehicle>
    <vehicle id="17" depart="34.00">
        <route edges="35926319#0 35926319#1 35926319#2 35926319#3 -108310253 -108239938 -888058431 -29458096#3 -29458096#2 -29458096#1 -29458096#0 -891497946#2 -891497946#1 -891497946#0 -51856495#3 -51856495#2 -51856495#1 -51856495#0 -31343381#0 -815662202 -29458097#2 -29458097#1 -29458097#0 1084717759#0 1084717759#1 1084717759#2 1084717759#3 24972185#0 24972185#1 24972185#2 24972185#3 24972185#4 24972185#5 24972185#6 24972185#7 29048562#0 29048562#1 29048562#2 32009682 32009683#0 32009683#1 32009683#2 950185007#0 950185007#1 950185007#2 -145069303#2 -145069303#1 -145069303#0 26973015#0 26973015#1 950185008 24983010 882941546 -976870176#2 -976870176#1 -976870176#0 -32350852#1 -32350852#0 -885513468#1 -885513468#0 1421376112 749560269 749560268 749560261 749560273 -32200983 24872530#0 24692328#0 24692328#1 210464672 210464673#0 -210464673#0 -210464672 -24692328#1 -24692328#0"/>
    </vehicle>
    <vehicle id="18" depart="36.00">
        <route edges="23009002#1 23009002#2 -814691982 -1186977745#1 -1186977745#0 -116765457 -914485584 -137463475 137463477#0 137463477#1 137463477#2 305390325#0 305390325#1 305390325#2 305390325#3 266567304#0 266567304#1 266567304#2 814691986 64464420 25955089 844743950 64464414#0 64464414#1 64464432#0 64464432#1 814691990 -24991571 -24991573 -11014139#2 -11014139#1 -11014139#0 950185007#0 950185007#1 950185007#2 -145069303#2 -145069303#1 -145069303#0 26973015#0 26973015#1"/>
    </vehicle>
    <vehicle id="19" depart="38.00">
        <route edges="145069303#0 145069303#1 145069303#2 -950185007#2 -950185007#1 -950185007#0 950185007#0 950185007#1 950185007#2 -145069303#2 -145069303#1 -145069303#0 26973015#0 26973015#1 950185008 24983010 882941546 -976870176#2 -976870176#1 -976870176#0 -32350852#1 -32350852#0 -885513468#1 -885513468#0 -749560274#1 -749560274#0 -749560275 -1023430509 -825445496 -877649796 32225921 718481103#0 718481103#1 718481103#2 233673423#0 233673423#1 28418763 -379723624#5 -379723624#4 -379723624#3 -379723624#2 -379723624#1 -379723624#0 -32923867#5 -32923867#4"/>
    </vehicle>
    <vehicle id="20" depart="40.00">
        <route edges="-116765457 -914485584 -137463475 137463477#0 137463477#1 137463477#2 31894763#0 31894763#1 137463475 914485584 116765457 1186977745#0 1186977745#1 814691982 28132014#0 28132014#1 28132014#2 42745460 42745461#0 42745461#1 -1199679352#2 -1199679352#1 -1199679352#0 -24977473 841388880#0 841388880#1 841388880#2 888669962 -888357490 -979851462#1 -979851462#0 -161678034#1 -161678034#0 -978223034 882941547#0 882941547#1 1426236343 978223045 -976870176#2 -976870176#1 -976870176#0 -32350852#1 -32350852#0 -885513468#1 -885513468#0 -749560274#1 -749560274#0 -749560275 -1023430509 -825445496 -877649796 -542617943 -389831364#2 -389831364#1 -389831364#0 -816623827#1 -816623827#0 914222984#0 914222984#1 892484334 950184979 914222983 892484333#0 892484333#1 -816623831 -136728351#2 -136728351#1 41203193"/>
    </vehicle>
    <vehicle id="21" depart="42.00">
        <route edges="25796964#0 -1268776282 -137463474#2 -137463474#1 -137463474#0 25796398#0 25796398#1 25796398#2 305390325#0 305390325#1 305390325#2 305390325#3 266567304#0 266567304#1 266567304#2 814691986 64464420 25955089 844743950 64464414#0 64464414#1 64464432#0 64464432#1 814691990 -24991571 -24991573 -11014139#2 -11014139#1 -11014139#0 -32009683#2 -32009683#1 -32009683#0 -32009682 -29048562#2 -29048562#1 -29048562#0 -24972185#7 -24972185#6 -24972185#5 -24972185#4 -24972185#3 -24972185#2 -24972185#1 -24972185#0 -1084717759#3 -1084717759#2 -1084717759#1 -1084717759#0 -1084717760#3"/>
    </vehicle>
    <vehicle id="22" depart="44.00">
        <route edges="25796398#2 305390325#0 305390325#1 305390325#2 305390325#3 266567304#0 266567304#1 266567304#2 814691986 64464420 25955089 844743950 64464414#0 64464414#1 64464432#0 64464432#1 814691990 -24991571 -24991573 -11014139#2 -11014139#1 -11014139#0 950185007#0 950185007#1 950185007#2 -145069303#2 -145069303#1 -145069303#0 26973015#0 26973015#1 -987493081 -24692391#1 -24692391#0 144659495 32200762#0 -28268964"/>
    </vehicle>
    <vehicle id="23" depart="46.00">
        <route edges="35926319#3 -108310253 -108239938 -888058431 -29458096#3 -29458096#2 -29458096#1 -29458096#0 -891497946#2 -891497946#1 -891497946#0 -51856495#3 -51856495#2 -51856495#1 -51856495#0 -31343381#0 -815662202 -29458097#2 -29458097#1 -29458097#0 1084717759#0 1084717759#1 1084717759#2 1084717759#3 24972185#0 24972185#1 24972185#2 24972185#3 24972185#4 24972185#5 24972185#6 24972185#7 29048562#0 29048562#1 29048562#2 32009682 32009683#0 32009683#1 32009683#2 11014139#0 11014139#1 11014139#2 24991573 24991571 64464405 266567306#0 266567306#1 64464408 64464384#0 64464384#1 32009827 266567303 266567294#0 266567294#1 1285343853#0 1285343853#1 31342064#0 31342064#1 31342064#2 31894763#0 31894763#1 137463475 914485584 116765457 1186977745#0 1186977745#1 814691982 28132014#0 28132014#1 28132014#2 42745460 42745461#0 42745461#1 54154922#0 54154922#1 54154922#2 26071515 4324820 4268817 164051399 201956817 33279254#0 33279254#1 718481098 556434727#0 556434727#1 542630099 816754686#0 816754686#1 816754686#2 816754695 1066379877 1066379865 141058765#0 141058765#1 1299099742 1204650385#0 1204650385#1 718481093 31624236#0 31624236#1 172700927#0 172700927#1 -1177241299#1 -1177241299#0 -981003821#4 -981003821#3 -981003821#2 -981003821#1 -981003821#0"/>
    </vehicle>
    <vehicle id="24" depart="48.00">
        <route edges="-105482066 -108310254 -105467137 -105482068 -107671229 -104236368 -32230724 -108310253 -108239938 -888058431 -29458096#3 -29458096#2 -29458096#1 -29458096#0 -891497946#2 -891497946#1 -891497946#0 -51856495#3 -51856495#2 -51856495#1 -51856495#0 -31343381#0 -815662202 -29458097#2 -29458097#1 -29458097#0 1084717759#0 1084717759#1 1084717759#2 1084717759#3 24972185#0 24972185#1 24972185#2 24972185#3 24972185#4 24972185#5 24972185#6 24972185#7 29048562#0 29048562#1 29048562#2 32009682 32009683#0 32009683#1 32009683#2 11014139#0 11014139#1 11014139#2 24991573 24991571 64464405 266567306#0 266567306#1 64464408 64464384#0 64464384#1 32009827 266567303 266567294#0 266567294#1 1285343853#0 1285343853#1 31342064#0 31342064#1 31342064#2 31894763#0 31894763#1 137463475 914485584 116765457 1186977745#0 1186977745#1 814691982 28132014#0 28132014#1 28132014#2 42745460 42745461#0 42745461#1 54154922#0 54154922#1 54154922#2 26071515 4324820 4268817 164051399 201956817 33279254#0 33279254#1 718481098 556434727#0 556434727#1 542630099 816754683#0 816754683#1 816754683#2 1066379870"/>
    </vehicle>
    <vehicle id="25" depart="50.00">
        <route edges="-54154921#2 -54154921#1 -54154921#0 -1199679352#2 -1199679352#1 -1199679352#0 -24977473 841388880#0 841388880#1 841388880#2 888669962 -888357490 -979851462#1 -979851462#0 -161678034#1 -161678034#0 -978223034 882941547#0 882941547#1 1426236343 28119593#0 28119593#1 978223044 -24983010 -950185008 -987493081 -24692391#1 -24692391#0 144659495 144659489 24762523#0 24762523#1 1269164995 32259255 31773007 77670297 887476721 110778890"/>
    </vehicle>
    <vehicle id="26" depart="52.00">
        <route edges="32225921 718481103#0 718481103#1 718481103#2 145069386#0 145069386#1 145069386#2 32124563 753083363 -749560273 -749560261 749560262 749560263#0 749560263#1 749560274#0 749560274#1 885513468#0 885513468#1 32350852#0 32350852#1 976870176#0 976870176#1 976870176#2 978223049#0 978223049#1 978223034 161678034#0 161678034#1 979851462#0 979851462#1 888357490 -888669962 -841388880#2 -841388880#1 -841388880#0 164051410#0 164051410#1 32199969#0 23009002#0 23009002#1 23009002#2 24978651#0 24978651#1 115082348 814691983 1215634477#0 1215634477#1 1215634477#2 1215634477#3"/>
    </vehicle>
    <vehicle id="27" depart="54.00">
        <route edges="-24608844#1 -24608844#0 24608844#0 24608844#1 32124637#1 32124635#0 32124635#1 726514443 914485582#0 914485582#1 914485582#2 914485582#3 914485582#4 837030917#0 837030917#1 51857517#0 51857517#1 51857517#2 51857518#0 51857518#1 816133972 32978638 1227627543 993109789#0 993109789#1 993109789#2 -1084717760#3 -1084717760#2 -1084717760#1 -1084717760#0 -389840420#1 -389840420#0 -32061928#7 -32061928#6 -32061928#5 -32061928#4 -32061928#3 -32061928#2 -32061928#1 -32061928#0 -893091818 -914222946 -389831363 -18909061#2 -18909061#1 -18909061#0 -204388144#2 -204388144#1 -204388144#0 -137685135 -33102490#1 -33102490#0 -51856496#7 -51856496#6 -51856496#5 -51856496#4 -51856496#3 -51856496#2 -51856496#1 -51856496#0 -888669950 -390282481 -885529290 -156923526#1 -156923526#0 -10425610#2 -10425610#1 -10425610#0 -816623827#1 -816623827#0 914222984#0 914222984#1 -914222984#1 -914222984#0"/>
    </vehicle>
    <vehicle id="28" depart="56.00">
        <route edges="37649447#0 37649447#1 -37649447#1 -37649447#0 -32202011 51856496#6 51856496#7 33102490#0 33102490#1 137685135 204388144#0 204388144#1 204388144#2 18909064 1421617485#0 1421617485#1 103512660 52513814 52513815 103512667#0 -103396186 -32084380 32084380 103396186"/>
    </vehicle>
    <vehicle id="29" depart="58.00">
        <route edges="1186977747#0 1186977747#1 1186977747#2 1186977747#3 1186977747#4 -1186977747#4 -1186977747#3 -1186977747#2 -1186977747#1 -1186977747#0 -118004640 589179144 816754684#0 816754684#1 816754717 950184988 816754703#0 816754703#1 816754703#2 201956818 718481094#0 718481094#1 718481096#0 718481096#1 718481096#2 164051398 4324821 4324823 203971379 718481100 -54154922#2 -54154922#1 -54154922#0 -1199679352#2 -1199679352#1 -1199679352#0 -24977473 841388880#0 841388880#1 841388880#2 888669962 -888357490 -979851462#1 -979851462#0 -161678034#1 -161678034#0 -978223034 882941547#0 882941547#1 1426236343 28119593#0 28119593#1 978223044 -24983010 -950185008 -987493081 -24692391#1 -24692391#0 144659495 144659489 24762523#0 24762523#1 1269164995 32259255 31773007 77670297 52572753#0 52572753#1 32924042 -32924041 -108310252#1 -108310252#0 -104236369 104236369"/>
    </vehicle>
    <vehicle id="30" depart="60.00">
        <route edges="31362504#0 31362504#1 31362504#2 31362504#3 31362504#4 31362504#5 31362504#6 -31362504#6 -31362504#5 -31362504#4 -31362504#3 -31362504#2 -31362504#1 -31362504#0 32923867#1 32923867#2 32923867#3 32923867#4 32923867#5 379723624#0 379723624#1 379723624#2 379723624#3 379723624#4 379723624#5 -28418763 -233673423#1 -233673423#0 145069386#0 145069386#1 145069386#2 32124563 753083363 -749560273 -749560261 749560262 749560263#0 749560263#1 749560274#0 749560274#1 885513468#0 885513468#1 32350852#0 32350852#1 976870176#0 976870176#1 976870176#2 978223049#0 978223049#1 978223034 161678034#0 161678034#1 979851462#0 979851462#1 888357490 -888669962 -841388880#2 -841388880#1 -841388880#0 24977473 1199679352#0 1199679352#1 1199679352#2 54154922#0 54154922#1 54154922#2 26071515 4324820 4268817 164051399 201956817 33279254#0 33279254#1 718481098 556434727#0 556434727#1 542630099 816754686#0 816754686#1 816754686#2 816754695 1066379877 1066379865 141058765#0 141058765#1 1299099742 1204650385#0 1204650385#1 718481093 31624236#0 31624236#1 172700927#0 172700927#1 -1177241299#1"/>
    </vehicle>
    <vehicle id="31" depart="62.00">
        <route edges="51857517#2 51857518#0 51857518#1 816133972 32978638 1227627543 993109789#0 993109789#1 993109789#2 -1084717760#3 -1084717760#2 -1084717760#1 -1084717760#0 -389840420#1 -389840420#0 -32061928#7 -32061928#6 -32061928#5 -32061928#4 -32061928#3 -32061928#2 -32061928#1 -32061928#0 -893091818 -914222946 -389831363 -18909061#2 -18909061#1 -18909061#0 -204388144#2 -204388144#1 -204388144#0 -137685135 -33102490#1 -33102490#0 -51856496#7 -51856496#6 -51856496#5 -51856496#4 -51856496#3 -51856496#2 -51856496#1 -51856496#0 -888669950 -390282481 -885529290 987493089 145069335#0 145069335#1"/>
    </vehicle>
    <vehicle id="32" depart="64.00">
        <route edges="29458097#2 815662202 31343381#0 -31343381#0 -815662202 -29458097#2 -29458097#1 -29458097#0 1084717759#0 1084717759#1 1084717759#2 1084717759#3 24972185#0 24972185#1 24972185#2 24972185#3 24972185#4 24972185#5 24972185#6 24972185#7 1389763707#0 1389763707#1 1389763707#2 24537982#0 24537982#1 266565302#0 266565302#1 892103979 1066379883 1377416011 1066379885 1286608599"/>
    </vehicle>
    <vehicle id="33" depart="66.00">
        <route edges="-816623827#0 914222984#0 914222984#1 -914222984#1 -914222984#0 816623827#0 816623827#1 389831364#0 389831364#1 389831364#2 542617943 877649796 825445496 1023430509 749560275 1023430508 749560268 749560261 749560273 718481107 1215634476#0 145069278#0 145069278#1 -145069278#1"/>
    </vehicle>
    <vehicle id="34" depart="68.00">
        <route edges="31342064#2 31894763#0 31894763#1 137463475 914485584 116765457 1186977745#0 1186977745#1 814691982 24978651#0 24978651#1 115082348 814691983 1215634477#0 1215634477#1"/>
    </vehicle>
    <vehicle id="35" depart="70.00">
        <route edges="4268817 164051399 201956817 33279254#0 33279254#1 718481098 556434727#0 556434727#1 718481094#0 718481094#1 718481096#0 718481096#1 718481096#2 164051398 4324821 4324823 203971379 718481100 -54154922#2 -54154922#1 -54154922#0 -1199679352#2 -1199679352#1 -1199679352#0 -24977473 841388880#0 841388880#1 841388880#2 888669962 -888357490 -979851462#1"/>
    </vehicle>
    <vehicle id="36" depart="72.00">
        <route edges="37451605 -32202011 51856496#6 51856496#7 33102490#0 33102490#1 137685135 204388144#0 204388144#1 204388144#2 18909061#0 18909061#1 18909061#2 389831363 914222946 893091818 32061928#0 32061928#1 32061928#2 32061928#3 32061928#4 32061928#5 32061928#6 32061928#7 389840420#0 389840420#1 1084717760#0 1084717760#1 1084717760#2 1084717760#3 1084717759#0 1084717759#1 1084717759#2 1084717759#3 24972185#0 24972185#1 24972185#2 24972185#3 24972185#4 24972185#5"/>
    </vehicle>
    <vehicle id="37" depart="74.00">
        <route edges="1066379886#1 1377416013 1377416009 380273341 836209351 1377416006 -266565302#1 -266565302#0 -24537982#1 -24537982#0 -1389763707#2 -1389763707#1 -1389763707#0 -24972185#7 -24972185#6 -24972185#5 -24972185#4 -24972185#3 -24972185#2 -24972185#1 -24972185#0 -1084717759#3 -1084717759#2 -1084717759#1 -1084717759#0 -1084717760#3 -1084717760#2 -1084717760#1 -1084717760#0 -389840420#1 -389840420#0 -32061928#7 -32061928#6 -32061928#5 -32061928#4 -32061928#3 -32061928#2 -32061928#1 -32061928#0 -893091818 -914222946 -389831363 -18909061#2 -18909061#1 -18909061#0 18909064 1421617485#0 1421617485#1"/>
    </vehicle>
    <vehicle id="38" depart="76.00">
        <route edges="1285343852#2 305390325#0 305390325#1 305390325#2 305390325#3 266567304#0 266567304#1 266567304#2 814691986 64464420 25955089 844743950 32009826 836213530 31342305 30404124 266567307#0 266567307#1 836209349#0 836209349#1 836209349#2 836209363#0 836209363#1 266565299 266565295#0 266565295#1 266565295#2 266565295#3 266565295#4 266565295#5 266565295#6 266565295#7 32999435#0 32999435#1 32124637#0 32124637#1 32124635#0 32124635#1 726514443 914485582#0 914485582#1 914485582#2 914485582#3 914485582#4 837030921#0 837030921#1 -1175155141 -315358248#1"/>
    </vehicle>
    <vehicle id="39" depart="78.00">
        <route edges="-103671248 -145069357 32201172#0 32201172#1 32201172#2 -887661222#2 -887661222#1 -887661222#0 -889393574#1 -889393574#0 -1215634476#1 -1215634476#0 -718481107 -749560273 -749560261 749560262 749560263#0 749560263#1 749560274#0 749560274#1 885513468#0 885513468#1 32350852#0 32350852#1 976870176#0 976870176#1 976870176#2 1023430510#0 1023430510#1 978223044 -24983010 -950185008 984732467#0 984732467#1 145069303#0 145069303#1 145069303#2 -950185007#2 -950185007#1 -950185007#0 -32009683#2 -32009683#1 -32009683#0 -32009682 -29048562#2 -29048562#1 -29048562#0 -24972185#7 -24972185#6 -24972185#5 -24972185#4 -24972185#3 -24972185#2 -24972185#1 -24972185#0 -1084717759#3 -1084717759#2 -1084717759#1 -1084717759#0 29458097#0 29458097#1 29458097#2 815662202 31343381#0 27825654#0 27825654#1 27825654#2"/>
    </vehicle>
    <vehicle id="41" depart="82.00">
        <route edges="20588641#2 28124729#0 28124729#1 354967544#1 354967544#2 354967544#3 816754718 1066379866 950184988 816754703#0 816754703#1 816754703#2"/>
    </vehicle>
    <vehicle id="42" depart="84.00">
        <route edges="718481100 -54154922#2 -54154922#1 -54154922#0 -42745461#1 -42745461#0 -42745460 -28132014#2 -28132014#1 -28132014#0 -814691982 -1186977745#1 -1186977745#0 -116765457 -914485584 -137463475 137463477#0 137463477#1 137463477#2 305390325#0 305390325#1 305390325#2 305390325#3 266567304#0 266567304#1 266567304#2 814691986 64464420 25955089 844743950 32009826 836213530 31342305 30404124 266567307#0 266567307#1 836209349#0 836209349#1 836209349#2 836209363#0 836209363#1 266565299 266565295#0 266565295#1 266565295#2 266565295#3 266565295#4 266565295#5 266565295#6 266565295#7 32999435#0 32999435#1 32124637#0 32124637#1 32124635#0 32124635#1 726514443 914485582#0 914485582#1 914485582#2 914485582#3 914485582#4 837030917#0 837030917#1 51857517#0 51857517#1 51857517#2 51857518#0 51857518#1"/>
    </vehicle>
    <vehicle id="43" depart="86.00">
        <route edges="25796964#2 25796964#3 -25796964#3 -25796964#2 -25796964#1 -1268776282 -137463474#2 -137463474#1 -137463474#0 25796398#0 25796398#1 25796398#2 31894763#0 31894763#1 137463475 914485584 116765457 1186977745#0 1186977745#1 814691982"/>
    </vehicle>
    <vehicle id="44" depart="88.00">
        <route edges="305495773#0 305495773#1 305495773#2 266507551 266507552#0 266507552#1 266507552#2 -257907858#2 -257907858#1 -257907858#0 -1215634477#4 -1215634477#3 -1215634477#2 -1215634477#1 -1215634477#0 -814691983 -115082348 -24978651#1 -24978651#0 -814691982 -1186977745#1 -1186977745#0 -116765457 -914485584 -137463475 137463477#0 137463477#1 137463477#2 305390325#0 305390325#1 305390325#2 305390325#3 266567304#0 266567304#1 266567304#2 814691986 64464420 25955089 844743950 64464414#0 64464414#1 64464432#0 64464432#1 814691990 -24991571 -24991573 -11014139#2 -11014139#1 -11014139#0 -32009683#2 -32009683#1 -32009683#0 -32009682 -29048562#2 -29048562#1 -29048562#0 -24972185#7 -24972185#6 -24972185#5 -24972185#4 -24972185#3 -24972185#2 -24972185#1 -24972185#0 -1084717759#3 -1084717759#2 -1084717759#1 -1084717759#0 -1084717760#3 -1084717760#2 -1084717760#1 -1084717760#0 -389840420#1 -389840420#0 -32061928#7 -32061928#6 -32061928#5 -32061928#4 -32061928#3 -32061928#2 32061928#2"/>
    </vehicle>
    <vehicle id="45" depart="90.00">