<?xml version="1.0" encoding="UTF-8"?>

<!-- generated on 12/16/25 15:39:13 by Eclipse SUMO netconvert Version 1.5.0
<configuration xmlns:xsi="http://www.w3.org/2001/XMLSchema-instance" xsi:noNamespaceSchemaLocation="http://sumo.dlr.de/xsd/netconvertConfiguration.xsd">

    <input>
        <osm-files value="petershausen_raw.osm"/>
    </input>

    <output>
        <output-file value="petershausen.net.xml"/>
    </output>

    <projection>
        <proj.utm value="true"/>
    </projection>

    <tls_building>
        <tls.discard-simple value="true"/>
    </tls_building>

    <edge_removal>
        <keep-edges.by-vclass value="passenger"/>
        <remove-edges.isolated value="true"/>
    </edge_removal>

    <junctions>
        <no-turnarounds.tls value="true"/>
        <junctions.join value="true"/>
    </junctions>

    <report>
        <aggregate-warnings value="5"/>
    </report>

</configuration>
-->

<net version="1.3" junctionCornerDetail="5" limitTurnSpeed="5.50" xmlns:xsi="http://www.w3.org/2001/XMLSchema-instance" xsi:noNamespaceSchemaLocation="http://sumo.dlr.de/xsd/net_file.xsd">

    <location netOffset="-679183.72,-5361223.60" convBoundary="0.00,0.00,8779.82,6596.68" origBoundary="11.421580,48.377391,11.539531,48.437034" projParameter="+proj=utm +zone=32 +ellps=WGS84 +datum=WGS84 +units=m +no_defs"/>

    <type id="highway.bridleway" priority="1" numLanes="1" speed="2.78" allow="pedestrian" oneway="1" width="2.00"/>
    <type id="highway.bus_guideway" priority="1" numLanes="1" speed="27.78" allow="bus" oneway="1"/>
    <type id="highway.cycleway" priority="1" numLanes="1" speed="8.33" allow="bicycle" oneway="0" width="1.00"/>
    <type id="highway.footway" priority="1" numLanes="1" speed="2.78" allow="pedestrian" oneway="1" width="2.00"/>
    <type id="highway.ford" priority="1" numLanes="1" speed="2.78" allow="army" oneway="0"/>
    <type id="highway.living_street" priority="2" numLanes="1" speed="2.78" disallow="tram rail_urban rail rail_electric rail_fast ship" oneway="0"/>
    <type id="highway.motorway" priority="14" numLanes="2" speed="39.44" allow="private emergency authority army vip passenger hov taxi bus coach delivery truck trailer motorcycle evehicle custom1 custom2" oneway="1"/>
    <type id="highway.motorway_link" priority="9" numLanes="1" speed="22.22" allow="private emergency authority army vip passenger hov taxi bus coach delivery truck trailer motorcycle evehicle custom1 custom2" oneway="1"/>
    <type id="highway.path" priority="1" numLanes="1" speed="2.78" allow="pedestrian bicycle" oneway="1" width="2.00"/>
    <type id="highway.pedestrian" priority="1" numLanes="1" speed="2.78" allow="pedestrian" oneway="1" width="2.00"/>
    <type id="highway.primary" priority="12" numLanes="2" speed="27.78" disallow="tram rail_urban rail rail_electric rail_fast ship" oneway="0"/>
    <type id="highway.primary_link" priority="7" numLanes="1" speed="22.22" disallow="tram rail_urban rail rail_electric rail_fast ship" oneway="0"/>
    <type id="highway.raceway" priority="15" numLanes="2" speed="83.33" allow="vip" oneway="0"/>
    <type id="highway.residential" priority="3" numLanes="1" speed="13.89" disallow="tram rail_urban rail rail_electric rail_fast ship" oneway="0"/>
    <type id="highway.secondary" priority="11" numLanes="1" speed="27.78" disallow="tram rail_urban rail rail_electric rail_fast ship" oneway="0"/>
    <type id="highway.secondary_link" priority="6" numLanes="1" speed="22.22" disallow="tram rail_urban rail rail_electric rail_fast ship" oneway="0"/>
    <type id="highway.service" priority="1" numLanes="1" speed="5.56" allow="pedestrian delivery bicycle" oneway="0"/>
    <type id="highway.stairs" priority="1" numLanes="1" speed="1.39" allow="pedestrian" oneway="1" width="2.00"/>
    <type id="highway.step" priority="1" numLanes="1" speed="1.39" allow="pedestrian" oneway="1" width="2.00"/>
    <type id="highway.steps" priority="1" numLanes="1" speed="1.39" allow="pedestrian" oneway="1" width="2.00"/>
    <type id="highway.tertiary" priority="10" numLanes="1" speed="22.22" disallow="tram rail_urban rail rail_electric rail_fast ship" oneway="0"/>
    <type id="highway.tertiary_link" priority="5" numLanes="1" speed="22.22" disallow="tram rail_urban rail rail_electric rail_fast ship" oneway="0"/>
    <type id="highway.track" priority="1" numLanes="1" speed="5.56" disallow="tram rail_urban rail rail_electric rail_fast ship" oneway="0"/>
    <type id="highway.trunk" priority="13" numLanes="2" speed="27.78" disallow="pedestrian bicycle tram rail_urban rail rail_electric rail_fast ship" oneway="0"/>
    <type id="highway.trunk_link" priority="8" numLanes="1" speed="22.22" disallow="pedestrian bicycle tram rail_urban rail rail_electric rail_fast ship" oneway="0"/>
    <type id="highway.unclassified" priority="4" numLanes="1" speed="13.89" disallow="tram rail_urban rail rail_electric rail_fast ship" oneway="0"/>
    <type id="highway.unsurfaced" priority="1" numLanes="1" speed="8.33" disallow="tram rail_urban rail rail_electric rail_fast ship" oneway="0"/>
    <type id="railway.highspeed" priority="21" numLanes="1" speed="69.44" allow="rail_fast" oneway="1"/>
    <type id="railway.light_rail" priority="19" numLanes="1" speed="27.78" allow="rail_urban" oneway="1"/>
    <type id="railway.preserved" priority="16" numLanes="1" speed="27.78" allow="rail" oneway="1"/>
    <type id="railway.rail" priority="20" numLanes="1" speed="44.44" allow="rail" oneway="1"/>
    <type id="railway.subway" priority="18" numLanes="1" speed="27.78" allow="rail_urban" oneway="1"/>
    <type id="railway.tram" priority="17" numLanes="1" speed="13.89" allow="tram" oneway="1"/>

    <edge id=":10029260841_0" function="internal">
        <lane id=":10029260841_0_0" index="0" disallow="tram rail_urban rail rail_electric rail_fast ship" speed="13.89" length="0.46" shape="7703.93,2264.50 7703.88,2264.63 7703.85,2264.72 7703.81,2264.81 7703.75,2264.93"/>
    </edge>
    <edge id=":10029260841_1" function="internal">
        <lane id=":10029260841_1_0" index="0" disallow="tram rail_urban rail rail_electric rail_fast ship" speed="13.89" length="0.15" shape="7700.85,2263.60 7700.87,2263.55 7700.88,2263.53 7700.89,2263.50 7700.91,2263.45"/>
    </edge>
    <edge id=":10030936400_0" function="internal">
        <lane id=":10030936400_0_0" index="0" disallow="tram rail_urban rail rail_electric rail_fast ship" speed="13.89" length="0.30" shape="3980.88,4065.71 3980.65,4065.51"/>
    </edge>
    <edge id=":10030936400_1" function="internal">
        <lane id=":10030936400_1_0" index="0" disallow="tram rail_urban rail rail_electric rail_fast ship" speed="13.89" length="0.30" shape="3982.74,4063.09 3982.97,4063.29"/>
    </edge>
    <edge id=":1038944401_0" function="internal">
        <lane id=":1038944401_0_0" index="0" disallow="tram rail_urban rail rail_electric rail_fast ship" speed="27.78" length="0.36" shape="1172.64,3126.28 1172.58,3126.37 1172.55,3126.43 1172.51,3126.49 1172.47,3126.59"/>
    </edge>
    <edge id=":1038944401_1" function="internal">
        <lane id=":1038944401_1_0" index="0" disallow="tram rail_urban rail rail_electric rail_fast ship" speed="27.78" length="1.09" shape="1169.51,3125.39 1169.63,3125.09 1169.73,3124.89 1169.84,3124.70 1170.03,3124.44"/>
    </edge>
    <edge id=":1038944402_0" function="internal">
        <lane id=":1038944402_0_0" index="0" disallow="tram rail_urban rail rail_electric rail_fast ship" speed="27.78" length="0.62" shape="1183.92,3113.19 1183.76,3113.26 1183.65,3113.33 1183.55,3113.40 1183.42,3113.53"/>
    </edge>
    <edge id=":1038944402_1" function="internal">
        <lane id=":1038944402_1_0" index="0" disallow="tram rail_urban rail rail_electric rail_fast ship" speed="9.33" length="1.86" shape="1181.15,3111.27 1181.55,3110.89 1181.84,3110.65 1182.17,3110.46 1182.68,3110.24"/>
    </edge>
    <edge id=":1038944403_0" function="internal">
        <lane id=":1038944403_0_0" index="0" disallow="tram rail_urban rail rail_electric rail_fast ship" speed="3.65" length="4.67" shape="1197.33,3083.34 1196.78,3082.01 1196.89,3081.12 1197.67,3080.68 1199.11,3080.69"/>
    </edge>
    <edge id=":10542707224_0" function="internal">
        <lane id=":10542707224_0_0" index="0" disallow="tram rail_urban rail rail_electric rail_fast ship" speed="3.65" length="4.67" shape="3028.08,2874.49 3029.11,2875.51 3029.34,2876.37 3028.80,2877.08 3027.46,2877.63"/>
    </edge>
    <edge id=":1068770316_0" function="internal">
        <lane id=":1068770316_0_0" index="0" disallow="tram rail_urban rail rail_electric rail_fast ship" speed="3.65" length="4.67" shape="2173.13,2828.95 2174.46,2829.50 2175.02,2830.20 2174.79,2831.06 2173.77,2832.09"/>
    </edge>
    <edge id=":10694732005_0" function="internal">
        <lane id=":10694732005_0_0" index="0" disallow="tram rail_urban rail rail_electric rail_fast ship" speed="13.89" length="0.10" shape="3002.40,1674.14 3002.40,1674.14"/>
    </edge>
    <edge id=":10694732005_1" function="internal">
        <lane id=":10694732005_1_0" index="0" disallow="tram rail_urban rail rail_electric rail_fast ship" speed="13.89" length="0.10" shape="2999.20,1674.00 2999.20,1674.00"/>
    </edge>
    <edge id=":10870484577_0" function="internal">
        <lane id=":10870484577_0_0" index="0" disallow="tram rail_urban rail rail_electric rail_fast ship" speed="27.78" length="0.31" shape="2948.06,2821.15 2947.87,2820.91"/>
    </edge>
    <edge id=":10870484577_1" function="internal">
        <lane id=":10870484577_1_0" index="0" disallow="tram rail_urban rail rail_electric rail_fast ship" speed="27.78" length="0.22" shape="2950.38,2818.93 2950.52,2819.10"/>
    </edge>
    <edge id=":10877643654_0" function="internal">
        <lane id=":10877643654_0_0" index="0" disallow="tram rail_urban rail rail_electric rail_fast ship" speed="13.89" length="0.10" shape="3854.66,4605.12 3854.66,4605.12"/>
    </edge>
    <edge id=":10877643654_1" function="internal">
        <lane id=":10877643654_1_0" index="0" disallow="tram rail_urban rail rail_electric rail_fast ship" speed="13.89" length="0.10" shape="3857.65,4603.97 3857.65,4603.97"/>
    </edge>
    <edge id=":10877643661_0" function="internal">
        <lane id=":10877643661_0_0" index="0" disallow="tram rail_urban rail rail_electric rail_fast ship" speed="13.89" length="0.10" shape="3699.87,4578.50 3699.87,4578.50"/>
    </edge>
    <edge id=":10877643661_1" function="internal">
        <lane id=":10877643661_1_0" index="0" disallow="tram rail_urban rail rail_electric rail_fast ship" speed="13.89" length="0.10" shape="3702.85,4577.33 3702.85,4577.33"/>
    </edge>
    <edge id=":10877643676_0" function="internal">
        <lane id=":10877643676_0_0" index="0" disallow="tram rail_urban rail rail_electric rail_fast ship" speed="13.89" length="0.10" shape="3725.44,4458.48 3725.44,4458.48"/>
    </edge>
    <edge id=":10877643676_1" function="internal">
        <lane id=":10877643676_1_0" index="0" disallow="tram rail_urban rail rail_electric rail_fast ship" speed="13.89" length="0.10" shape="3724.28,4455.50 3724.28,4455.50"/>
    </edge>
    <edge id=":10877643686_0" function="internal">
        <lane id=":10877643686_0_0" index="0" disallow="tram rail_urban rail rail_electric rail_fast ship" speed="13.89" length="0.10" shape="3673.45,4510.96 3673.45,4510.96"/>
    </edge>
    <edge id=":10877643686_1" function="internal">
        <lane id=":10877643686_1_0" index="0" disallow="tram rail_urban rail rail_electric rail_fast ship" speed="13.89" length="0.10" shape="3676.43,4509.79 3676.43,4509.79"/>
    </edge>
    <edge id=":10877643688_0" function="internal">
        <lane id=":10877643688_0_0" index="0" disallow="tram rail_urban rail rail_electric rail_fast ship" speed="13.89" length="0.10" shape="3799.42,4461.87 3799.42,4461.87"/>
    </edge>
    <edge id=":10877643688_1" function="internal">
        <lane id=":10877643688_1_0" index="0" disallow="tram rail_urban rail rail_electric rail_fast ship" speed="13.89" length="0.10" shape="3802.40,4460.72 3802.40,4460.72"/>
    </edge>
    <edge id=":11248160380_0" function="internal">
        <lane id=":11248160380_0_0" index="0" disallow="tram rail_urban rail rail_electric rail_fast ship" speed="5.56" length="9.04" shape="3295.15,3724.22 3292.75,3723.45 3290.76,3723.67 3289.17,3724.90 3287.99,3727.12"/>
    </edge>
    <edge id=":11248160380_1" function="internal">
        <lane id=":11248160380_1_0" index="0" disallow="tram rail_urban rail rail_electric rail_fast ship" speed="8.33" length="14.28" shape="3295.15,3724.22 3291.90,3722.58 3288.81,3720.92 3285.78,3719.16 3282.70,3717.23"/>
    </edge>
    <edge id=":11248160380_2" function="internal">
        <lane id=":11248160380_2_0" index="0" disallow="tram rail_urban rail rail_electric rail_fast ship" speed="3.65" length="2.34" shape="3295.15,3724.22 3294.42,3722.98 3294.42,3722.08"/>
    </edge>
    <edge id=":11248160380_9" function="internal">
        <lane id=":11248160380_9_0" index="0" disallow="tram rail_urban rail rail_electric rail_fast ship" speed="3.65" length="2.34" shape="3294.42,3722.08 3295.13,3721.54 3296.56,3721.35"/>
    </edge>
    <edge id=":11248160380_3" function="internal">
        <lane id=":11248160380_3_0" index="0" disallow="tram rail_urban rail rail_electric rail_fast ship" speed="8.33" length="13.90" shape="3284.45,3714.55 3287.48,3716.45 3290.39,3718.15 3293.36,3719.74 3296.56,3721.35"/>
    </edge>
    <edge id=":11248160380_4" function="internal">
        <lane id=":11248160380_4_0" index="0" disallow="tram rail_urban rail rail_electric rail_fast ship" speed="5.56" length="5.44" shape="3284.45,3714.55 3287.12,3716.93 3287.97,3718.58"/>
    </edge>
    <edge id=":11248160380_5" function="internal">
        <lane id=":11248160380_5_0" index="0" disallow="tram rail_urban rail rail_electric rail_fast ship" speed="3.65" length="2.34" shape="3284.45,3714.55 3285.02,3715.87 3284.92,3716.76"/>
    </edge>
    <edge id=":11248160380_10" function="internal">
        <lane id=":11248160380_10_0" index="0" disallow="tram rail_urban rail rail_electric rail_fast ship" speed="5.56" length="8.80" shape="3287.97,3718.58 3288.61,3719.82 3288.89,3723.21 3287.99,3727.12"/>
    </edge>
    <edge id=":11248160380_11" function="internal">
        <lane id=":11248160380_11_0" index="0" disallow="tram rail_urban rail rail_electric rail_fast ship" speed="3.65" length="2.34" shape="3284.92,3716.76 3284.14,3717.22 3282.70,3717.23"/>
    </edge>
    <edge id=":11248160380_6" function="internal">
        <lane id=":11248160380_6_0" index="0" disallow="tram rail_urban rail rail_electric rail_fast ship" speed="5.56" length="9.91" shape="3284.98,3726.03 3285.64,3723.26 3285.48,3720.87 3284.50,3718.86 3282.70,3717.23"/>
    </edge>
    <edge id=":11248160380_7" function="internal">
        <lane id=":11248160380_7_0" index="0" disallow="tram rail_urban rail rail_electric rail_fast ship" speed="5.56" length="14.62" shape="3284.98,3726.03 3286.90,3722.44 3289.46,3720.46 3292.68,3720.10 3296.56,3721.35"/>
    </edge>
    <edge id=":11248160380_8" function="internal">
        <lane id=":11248160380_8_0" index="0" disallow="tram rail_urban rail rail_electric rail_fast ship" speed="2.78" length="4.67" shape="3284.98,3726.03 3286.14,3725.17 3287.03,3725.07 3287.65,3725.72 3287.99,3727.12"/>
    </edge>
    <edge id=":11248160401_0" function="internal">
        <lane id=":11248160401_0_0" index="0" disallow="tram rail_urban rail rail_electric rail_fast ship" speed="3.65" length="4.67" shape="3077.59,3677.69 3076.17,3677.41 3075.50,3676.83 3075.56,3675.93 3076.36,3674.73"/>
    </edge>
    <edge id=":11778055185_0" function="internal">
        <lane id=":11778055185_0_0" index="0" disallow="tram rail_urban rail rail_electric rail_fast ship" speed="2.78" length="9.03" shape="3575.10,3860.04 3573.25,3858.39 3571.32,3857.74 3569.31,3858.08 3567.23,3859.42"/>
    </edge>
    <edge id=":11778055185_1" function="internal">
        <lane id=":11778055185_1_0" index="0" disallow="tram rail_urban rail rail_electric rail_fast ship" speed="2.78" length="14.32" shape="3575.10,3860.04 3566.14,3848.87"/>
    </edge>
    <edge id=":11778055185_2" function="internal">
        <lane id=":11778055185_2_0" index="0" disallow="tram rail_urban rail rail_electric rail_fast ship" speed="2.78" length="4.67" shape="3575.10,3860.04 3574.94,3858.61 3575.29,3857.79 3576.16,3857.58 3577.55,3857.98"/>
    </edge>
    <edge id=":11778055185_3" function="internal">
        <lane id=":11778055185_3_0" index="0" disallow="tram rail_urban rail rail_electric rail_fast ship" speed="2.78" length="14.16" shape="3568.69,3846.94 3577.55,3857.98"/>
    </edge>
    <edge id=":11778055185_4" function="internal">
        <lane id=":11778055185_4_0" index="0" disallow="tram rail_urban rail rail_electric rail_fast ship" speed="2.78" length="14.15" shape="3568.69,3846.94 3570.53,3850.26 3570.90,3853.44 3569.80,3856.50 3567.23,3859.42"/>
    </edge>
    <edge id=":11778055185_5" function="internal">
        <lane id=":11778055185_5_0" index="0" disallow="tram rail_urban rail rail_electric rail_fast ship" speed="2.78" length="4.67" shape="3568.69,3846.94 3568.78,3848.37 3568.38,3849.18 3567.50,3849.34 3566.14,3848.87"/>
    </edge>
    <edge id=":11778055185_6" function="internal">
        <lane id=":11778055185_6_0" index="0" disallow="tram rail_urban rail rail_electric rail_fast ship" speed="2.78" length="9.21" shape="3565.13,3857.00 3566.82,3855.09 3567.55,3853.09 3567.33,3851.02 3566.14,3848.87"/>
    </edge>
    <edge id=":11778055185_7" function="internal">
        <lane id=":11778055185_7_0" index="0" disallow="tram rail_urban rail rail_electric rail_fast ship" speed="2.78" length="14.23" shape="3565.13,3857.00 3568.42,3854.89 3571.59,3854.35 3574.63,3855.38 3577.55,3857.98"/>
    </edge>
    <edge id=":11778055185_8" function="internal">
        <lane id=":11778055185_8_0" index="0" disallow="tram rail_urban rail rail_electric rail_fast ship" speed="2.78" length="4.67" shape="3565.13,3857.00 3566.57,3856.82 3567.39,3857.16 3567.61,3858.03 3567.23,3859.42"/>
    </edge>
    <edge id=":11778219344_0" function="internal">
        <lane id=":11778219344_0_0" index="0" disallow="tram rail_urban rail rail_electric rail_fast ship" speed="13.89" length="0.10" shape="3675.33,4515.78 3675.33,4515.78"/>
    </edge>
    <edge id=":11778219344_1" function="internal">
        <lane id=":11778219344_1_0" index="0" disallow="tram rail_urban rail rail_electric rail_fast ship" speed="13.89" length="0.10" shape="3678.31,4514.61 3678.31,4514.61"/>
    </edge>
    <edge id=":11778263051_0" function="internal">
        <lane id=":11778263051_0_0" index="0" disallow="tram rail_urban rail rail_electric rail_fast ship" speed="13.89" length="0.10" shape="3706.37,4465.91 3706.37,4465.91"/>
    </edge>
    <edge id=":11778263051_1" function="internal">
        <lane id=":11778263051_1_0" index="0" disallow="tram rail_urban rail rail_electric rail_fast ship" speed="13.89" length="0.10" shape="3705.21,4462.93 3705.21,4462.93"/>
    </edge>
    <edge id=":11778263056_0" function="internal">
        <lane id=":11778263056_0_0" index="0" disallow="tram rail_urban rail rail_electric rail_fast ship" speed="13.89" length="0.10" shape="3753.00,4447.76 3753.00,4447.76"/>
    </edge>
    <edge id=":11778263056_1" function="internal">
        <lane id=":11778263056_1_0" index="0" disallow="tram rail_urban rail rail_electric rail_fast ship" speed="13.89" length="0.10" shape="3751.84,4444.78 3751.84,4444.78"/>
    </edge>
    <edge id=":12071070477_0" function="internal">
        <lane id=":12071070477_0_0" index="0" disallow="tram rail_urban rail rail_electric rail_fast ship" speed="13.89" length="0.10" shape="3452.47,3503.14 3452.54,3503.11"/>
    </edge>
    <edge id=":12071070477_1" function="internal">
        <lane id=":12071070477_1_0" index="0" disallow="tram rail_urban rail rail_electric rail_fast ship" speed="13.89" length="0.10" shape="3451.33,3500.15 3451.40,3500.12"/>
    </edge>
    <edge id=":12760514464_0" function="internal">
        <lane id=":12760514464_0_0" index="0" disallow="tram rail_urban rail rail_electric rail_fast ship" speed="13.89" length="0.10" shape="4615.92,4607.81 4615.92,4607.81"/>
    </edge>
    <edge id=":12760514464_1" function="internal">
        <lane id=":12760514464_1_0" index="0" disallow="tram rail_urban rail rail_electric rail_fast ship" speed="13.89" length="0.10" shape="4613.66,4605.54 4613.66,4605.54"/>
    </edge>
    <edge id=":12997914041_0" function="internal">
        <lane id=":12997914041_0_0" index="0" disallow="tram rail_urban rail rail_electric rail_fast ship" speed="13.89" length="0.10" shape="3817.97,4509.96 3817.97,4509.96"/>
    </edge>
    <edge id=":12997914041_1" function="internal">
        <lane id=":12997914041_1_0" index="0" disallow="tram rail_urban rail rail_electric rail_fast ship" speed="13.89" length="0.10" shape="3820.95,4508.80 3820.95,4508.80"/>
    </edge>
    <edge id=":12997914045_0" function="internal">
        <lane id=":12997914045_0_0" index="0" disallow="tram rail_urban rail rail_electric rail_fast ship" speed="13.89" length="0.10" shape="3843.54,4576.29 3843.54,4576.29"/>
    </edge>
    <edge id=":12997914045_1" function="internal">
        <lane id=":12997914045_1_0" index="0" disallow="tram rail_urban rail rail_electric rail_fast ship" speed="13.89" length="0.10" shape="3846.53,4575.14 3846.53,4575.14"/>
    </edge>
    <edge id=":1347583337_0" function="internal">
        <lane id=":1347583337_0_0" index="0" disallow="tram rail_urban rail rail_electric rail_fast ship" speed="13.89" length="0.10" shape="4183.77,4410.92 4183.81,4410.96"/>
    </edge>
    <edge id=":1347583337_1" function="internal">
        <lane id=":1347583337_1_0" index="0" disallow="tram rail_urban rail rail_electric rail_fast ship" speed="13.89" length="0.10" shape="4186.06,4408.69 4186.03,4408.65"/>
    </edge>
    <edge id=":1348653349_0" function="internal">
        <lane id=":1348653349_0_0" index="0" disallow="tram rail_urban rail rail_electric rail_fast ship" speed="8.33" length="0.28" shape="3545.31,3652.27 3545.08,3652.43"/>
    </edge>
    <edge id=":1348653349_1" function="internal">
        <lane id=":1348653349_1_0" index="0" disallow="tram rail_urban rail rail_electric rail_fast ship" speed="8.33" length="0.14" shape="3543.27,3649.79 3543.39,3649.71"/>
    </edge>
    <edge id=":1348723331_0" function="internal">
        <lane id=":1348723331_0_0" index="0" disallow="tram rail_urban rail rail_electric rail_fast ship" speed="8.33" length="0.10" shape="3379.24,3440.92 3379.24,3440.92"/>
    </edge>
    <edge id=":1348723331_1" function="internal">
        <lane id=":1348723331_1_0" index="0" disallow="tram rail_urban rail rail_electric rail_fast ship" speed="8.33" length="0.10" shape="3382.16,3439.62 3382.16,3439.62"/>
    </edge>
    <edge id=":1351902957_0" function="internal">
        <lane id=":1351902957_0_0" index="0" disallow="tram rail_urban rail rail_electric rail_fast ship" speed="13.89" length="0.38" shape="3957.83,3048.70 3957.58,3048.40"/>
    </edge>
    <edge id=":1351902957_1" function="internal">
        <lane id=":1351902957_1_0" index="0" disallow="tram rail_urban rail rail_electric rail_fast ship" speed="13.89" length="0.13" shape="3960.12,3046.46 3960.21,3046.56"/>
    </edge>
    <edge id=":1354158397_0" function="internal">
        <lane id=":1354158397_0_0" index="0" disallow="tram rail_urban rail rail_electric rail_fast ship" speed="11.11" length="0.25" shape="3934.57,4025.75 3934.38,4025.60"/>
    </edge>
    <edge id=":1354158397_1" function="internal">
        <lane id=":1354158397_1_0" index="0" disallow="tram rail_urban rail rail_electric rail_fast ship" speed="11.11" length="0.31" shape="3936.36,4023.09 3936.60,4023.28"/>
    </edge>
    <edge id=":1354781820_0" function="internal">
        <lane id=":1354781820_0_0" index="0" disallow="tram rail_urban rail rail_electric rail_fast ship" speed="13.89" length="0.30" shape="3402.96,3559.36 3402.85,3559.08"/>
    </edge>
    <edge id=":1354781820_1" function="internal">
        <lane id=":1354781820_1_0" index="0" disallow="tram rail_urban rail rail_electric rail_fast ship" speed="13.89" length="0.30" shape="3405.83,3557.90 3405.94,3558.18"/>
    </edge>
    <edge id=":1356250068_0" function="internal">
        <lane id=":1356250068_0_0" index="0" disallow="tram rail_urban rail rail_electric rail_fast ship" speed="2.78" length="0.10" shape="2963.72,3174.01 2963.77,3174.08"/>
    </edge>
    <edge id=":1356250068_1" function="internal">
        <lane id=":1356250068_1_0" index="0" disallow="tram rail_urban rail rail_electric rail_fast ship" speed="2.78" length="0.10" shape="2966.39,3172.24 2966.43,3172.31"/>
    </edge>
    <edge id=":1361128750_0" function="internal">
        <lane id=":1361128750_0_0" index="0" disallow="tram rail_urban rail rail_electric rail_fast ship" speed="3.65" length="4.67" shape="4161.87,2995.62 4163.15,2996.30 4163.62,2997.05 4163.31,2997.89 4162.19,2998.81"/>
    </edge>
    <edge id=":1361883827_0" function="internal">
        <lane id=":1361883827_0_0" index="0" disallow="tram rail_urban rail rail_electric rail_fast ship" speed="13.89" length="0.10" shape="3221.04,3176.65 3221.14,3176.65"/>
    </edge>
    <edge id=":1361883827_1" function="internal">
        <lane id=":1361883827_1_0" index="0" disallow="tram rail_urban rail rail_electric rail_fast ship" speed="13.89" length="0.10" shape="3220.91,3173.46 3221.01,3173.45"/>
    </edge>
    <edge id=":1368668973_0" function="internal">
        <lane id=":1368668973_0_0" index="0" disallow="tram rail_urban rail rail_electric rail_fast ship" speed="2.78" length="0.27" shape="3255.82,3792.40 3255.58,3792.53"/>
    </edge>
    <edge id=":1368668973_1" function="internal">
        <lane id=":1368668973_1_0" index="0" disallow="tram rail_urban rail rail_electric rail_fast ship" speed="2.78" length="0.13" shape="3254.16,3789.66 3254.28,3789.60"/>
    </edge>
    <edge id=":1371913318_0" function="internal">
        <lane id=":1371913318_0_0" index="0" disallow="tram rail_urban rail rail_electric rail_fast ship" speed="8.33" length="0.30" shape="3586.54,3298.50 3586.29,3298.33"/>
    </edge>
    <edge id=":1371913318_1" function="internal">
        <lane id=":1371913318_1_0" index="0" disallow="tram rail_urban rail rail_electric rail_fast ship" speed="8.33" length="0.30" shape="3588.04,3295.66 3588.29,3295.82"/>
    </edge>
    <edge id=":1371975354_0" function="internal">
        <lane id=":1371975354_0_0" index="0" disallow="tram rail_urban rail rail_electric rail_fast ship" speed="8.33" length="0.31" shape="3593.13,3400.24 3592.83,3400.27"/>
    </edge>
    <edge id=":1371975354_1" function="internal">
        <lane id=":1371975354_1_0" index="0" disallow="tram rail_urban rail rail_electric rail_fast ship" speed="8.33" length="0.23" shape="3592.50,3397.09 3592.73,3397.06"/>
    </edge>
    <edge id=":1372117697_0" function="internal">
        <lane id=":1372117697_0_0" index="0" disallow="tram rail_urban rail rail_electric rail_fast ship" speed="8.33" length="0.10" shape="3464.04,3264.73 3464.11,3264.69"/>
    </edge>
    <edge id=":1372117697_1" function="internal">
        <lane id=":1372117697_1_0" index="0" disallow="tram rail_urban rail rail_electric rail_fast ship" speed="8.33" length="0.10" shape="3462.47,3261.94 3462.54,3261.90"/>
    </edge>
    <edge id=":1372202337_0" function="internal">
        <lane id=":1372202337_0_0" index="0" disallow="tram rail_urban rail rail_electric rail_fast ship" speed="13.89" length="0.31" shape="3596.84,3499.82 3596.55,3499.91"/>
    </edge>
    <edge id=":1372202337_1" function="internal">
        <lane id=":1372202337_1_0" index="0" disallow="tram rail_urban rail rail_electric rail_fast ship" speed="13.89" length="0.29" shape="3595.60,3496.86 3595.87,3496.77"/>
    </edge>
    <edge id=":1375168296_0" function="internal">
        <lane id=":1375168296_0_0" index="0" disallow="tram rail_urban rail rail_electric rail_fast ship" speed="3.65" length="4.67" shape="6283.94,4463.12 6284.36,4464.50 6284.17,4465.37 6283.35,4465.73 6281.92,4465.60"/>
    </edge>
    <edge id=":1375168307_0" function="internal">
        <lane id=":1375168307_0_0" index="0" disallow="tram rail_urban rail rail_electric rail_fast ship" speed="13.89" length="7.83" shape="3517.29,3496.39 3511.56,3491.05"/>
    </edge>
    <edge id=":1375168307_1" function="internal">
        <lane id=":1375168307_1_0" index="0" disallow="tram rail_urban rail rail_electric rail_fast ship" speed="13.89" length="7.92" shape="3513.83,3488.81 3515.79,3490.08 3517.55,3490.26 3519.36,3490.40 3521.44,3491.53"/>
        <lane id=":1375168307_1_1" index="1" disallow="tram rail_urban rail rail_electric rail_fast ship" speed="13.89" length="7.92" shape="3513.83,3488.81 3519.36,3493.96"/>
    </edge>
    <edge id=":1375168310_0" function="internal">
        <lane id=":1375168310_0_0" index="0" disallow="tram rail_urban rail rail_electric rail_fast ship" speed="15.28" length="0.31" shape="5831.59,4232.16 5831.29,4232.07"/>
    </edge>
    <edge id=":1375168310_1" function="internal">
        <lane id=":1375168310_1_0" index="0" disallow="tram rail_urban rail rail_electric rail_fast ship" speed="15.28" length="0.24" shape="5832.28,4229.03 5832.51,4229.10"/>
    </edge>
    <edge id=":1425447740_0" function="internal">
        <lane id=":1425447740_0_0" index="0" disallow="tram rail_urban rail rail_electric rail_fast ship" speed="8.33" length="0.31" shape="2093.27,2904.12 2093.25,2903.81"/>
    </edge>
    <edge id=":1425447740_1" function="internal">
        <lane id=":1425447740_1_0" index="0" disallow="tram rail_urban rail rail_electric rail_fast ship" speed="8.33" length="0.26" shape="2096.44,2903.63 2096.46,2903.89"/>
    </edge>
    <edge id=":1425722009_0" function="internal">