<?xml version="1.0" encoding="UTF-8"?>

<!-- generated on 12/16/25 15:39:27 by Eclipse SUMO polyconvert Version 1.5.0
<configuration xmlns:xsi="http://www.w3.org/2001/XMLSchema-instance" xsi:noNamespaceSchemaLocation="http://sumo.dlr.de/xsd/polyconvertConfiguration.xsd">

    <input>
        <net-file value="petershausen.net.xml"/>
        <osm-files value="petershausen_raw.osm"/>
    </input>

    <output>
        <output-file value="petershausen.poly.xml"/>
    </output>

    <processing>
        <poi-layer-offset value="5"/>
    </processing>

</configuration>
-->

<additional xmlns:xsi="http://www.w3.org/2001/XMLSchema-instance" xsi:noNamespaceSchemaLocation="http://sumo.dlr.de/xsd/additional_file.xsd">
    <location netOffset="-679183.72,-5361223.60" convBoundary="-0.00,0.00,8779.82,6599.73" origBoundary="11.421580,48.377391,11.539531,48.437075" projParameter="+proj=utm +zone=32 +ellps=WGS84 +datum=WGS84 +units=m +no_defs"/>

    <poly id="1004110097" type="building" color="255,230,230" fill="1" layer="-1.00" shape="4894.297084,1530.003189 4891.331790,1534.835651 4897.079369,1538.337775 4900.044666,1533.505316 4894.297084,1530.003189"/>
    <poly id="1004110098" type="building" color="255,230,230" fill="1" layer="-1.00" shape="4890.860741,1514.882861 4887.792614,1523.795167 4899.437408,1527.789170 4902.512953,1518.877111 4890.860741,1514.882861"/>
    <poly id="1004110101" type="building" color="255,230,230" fill="1" layer="-1.00" shape="3306.041497,3187.268910 3298.274714,3194.050205 3304.226970,3200.828314 3311.993752,3194.047027 3306.041497,3187.268910"/>
    <poly id="1004110105" type="building" color="255,230,230" fill="1" layer="-1.00" shape="3790.115979,3871.037285 3782.867553,3875.765258 3784.519247,3878.288523 3791.767671,3873.560553 3790.115979,3871.037285"/>
    <poly id="1004110106" type="building" color="255,230,230" fill="1" layer="-1.00" shape="3776.282440,3871.881074 3780.037837,3877.609746 3782.867553,3875.765258 3790.115979,3871.037285 3786.360587,3865.308607 3776.282440,3871.881074"/>
    <poly id="1006779128" type="building" color="255,230,230" fill="1" layer="-1.00" shape="3044.045807,2856.804710 3052.616552,2855.433734 3052.023348,2851.765442 3043.452597,2853.136420 3044.045807,2856.804710"/>
    <poly id="1013912127" type="building" color="255,230,230" fill="1" layer="-1.00" shape="3632.085948,4562.173432 3626.486741,4547.729482 3662.453249,4533.859604 3668.059783,4548.303830 3632.085948,4562.173432"/>
    <poly id="1101324818" type="building" color="255,230,230" fill="1" layer="-1.00" shape="3555.022471,3458.672536 3528.404384,3467.971848 3533.086087,3481.284560 3559.704122,3471.985271 3555.877393,3461.103267 3555.022471,3458.672536"/>
    <poly id="1101324820" type="building" color="255,230,230" fill="1" layer="-1.00" shape="3569.143712,3496.243438 3584.217010,3490.977671 3579.419681,3477.349659 3564.353752,3482.615679 3569.143712,3496.243438"/>
    <poly id="1101324821" type="building" color="255,230,230" fill="1" layer="-1.00" shape="3554.077843,3501.509484 3569.143712,3496.243438 3564.353752,3482.615679 3549.287853,3487.881737 3554.077843,3501.509484"/>
    <poly id="1101325653" type="building" color="255,230,230" fill="1" layer="-1.00" shape="3555.877393,3461.103267 3559.704122,3471.985271 3560.491496,3474.213561 3575.624755,3468.927451 3571.010681,3455.817143 3555.877393,3461.103267"/>
    <poly id="1101330569" type="building" color="255,230,230" fill="1" layer="-1.00" shape="3651.049358,3789.000794 3653.802426,3785.629542 3643.270991,3777.101109 3640.517925,3780.472367 3651.049358,3789.000794"/>
    <poly id="1101330570" type="building" color="255,230,230" fill="1" layer="-1.00" shape="3640.517925,3780.472367 3624.298927,3800.375825 3634.829984,3808.915337 3651.049358,3789.000794 3640.517925,3780.472367"/>
    <poly id="1101330571" type="building" color="255,230,230" fill="1" layer="-1.00" shape="3607.439909,3790.764343 3633.553570,3768.365327 3624.757287,3758.168438 3598.643261,3780.578609 3607.439909,3790.764343"/>
    <poly id="1137840996" type="building" color="255,230,230" fill="1" layer="-1.00" shape="3729.430929,3853.178818 3737.821965,3846.095636 3731.071449,3838.156394 3722.680411,3845.239586 3729.430929,3853.178818"/>
    <poly id="1137840997" type="building" color="255,230,230" fill="1" layer="-1.00" shape="3824.680178,3604.479129 3829.226472,3601.321639 3825.148570,3595.482396 3820.594875,3598.639650 3824.680178,3604.479129"/>
    <poly id="1137840998" type="building" color="255,230,230" fill="1" layer="-1.00" shape="3868.897460,3593.124144 3880.910507,3593.167405 3880.941349,3585.335864 3868.920886,3585.292364 3868.897460,3593.124144"/>
    <poly id="1137840999" type="building" color="255,230,230" fill="1" layer="-1.00" shape="3421.733416,3210.277036 3432.969866,3219.728873 3445.384667,3205.031430 3434.155247,3195.590921 3421.733416,3210.277036"/>
    <poly id="1144157516" type="building" color="255,230,230" fill="1" layer="-1.00" shape="4170.130177,5255.315525 4179.431298,5266.508899 4186.849517,5260.385147 4177.548399,5249.191760 4170.130177,5255.315525"/>
    <poly id="1144157517" type="building" color="255,230,230" fill="1" layer="-1.00" shape="4155.302418,5267.296341 4164.596148,5278.489451 4172.021732,5272.365920 4162.720608,5261.172558 4155.302418,5267.296341"/>
    <poly id="1144157518" type="building" color="255,230,230" fill="1" layer="-1.00" shape="4149.061204,5292.416654 4160.182936,5301.810931 4166.410936,5294.480405 4155.289198,5285.086116 4149.061204,5292.416654"/>
    <poly id="1144157519" type="building" color="255,230,230" fill="1" layer="-1.00" shape="4138.454279,5448.491287 4138.727400,5440.055623 4145.340363,5440.269735 4145.067232,5448.705398 4138.454279,5448.491287"/>
    <poly id="1144157520" type="building" color="255,230,230" fill="1" layer="-1.00" shape="4145.915132,5450.190336 4153.624843,5450.606856 4153.854158,5446.497723 4146.144441,5446.081202 4145.915132,5450.190336"/>
    <poly id="1144157521" type="building" color="255,230,230" fill="1" layer="-1.00" shape="4362.631253,5537.684734 4372.265064,5540.645001 4375.334691,5530.697865 4365.700864,5527.737593 4362.631253,5537.684734"/>
    <poly id="1144157522" type="building" color="255,230,230" fill="1" layer="-1.00" shape="4152.444886,5628.826784 4162.055133,5622.451356 4166.934541,5629.774408 4157.317263,5636.138474 4152.444886,5628.826784"/>
    <poly id="1144157523" type="building" color="255,230,230" fill="1" layer="-1.00" shape="4141.932646,5637.676334 4141.484763,5619.493342 4135.193351,5619.645660 4135.641254,5637.828652 4141.932646,5637.676334"/>
    <poly id="1144157524" type="building" color="255,230,230" fill="1" layer="-1.00" shape="4204.257195,5592.398762 4213.675015,5585.338506 4218.850957,5592.192798 4209.433141,5599.253045 4204.257195,5592.398762"/>
    <poly id="1144157525" type="building" color="255,230,230" fill="1" layer="-1.00" shape="4234.040730,5572.903102 4249.325650,5561.193227 4253.262573,5566.294029 4237.977297,5578.015008 4234.040730,5572.903102"/>
    <poly id="1144868135" type="building" color="255,230,230" fill="1" layer="-1.00" shape="3047.547565,3138.819221 3047.291017,3127.218032 3054.014645,3127.067127 3054.271180,3138.668316 3047.547565,3138.819221"/>
    <poly id="1149946086" type="building" color="255,230,230" fill="1" layer="-1.00" shape="1773.988653,5659.671172 1777.980467,5664.738513 1781.838514,5661.713290 1777.839304,5656.645711 1773.988653,5659.671172"/>
    <poly id="1149946087" type="building" color="255,230,230" fill="1" layer="-1.00" shape="1728.698937,5644.083220 1748.174108,5639.387535 1738.851624,5600.940058 1719.376689,5605.624664 1728.698937,5644.083220"/>
    <poly id="1154605335" type="building" color="255,230,230" fill="1" layer="-1.00" shape="5059.067137,3681.648465 5065.535769,3686.820988 5071.464287,3679.448190 5064.995651,3674.275660 5059.067137,3681.648465"/>
    <poly id="1154605336" type="building" color="255,230,230" fill="1" layer="-1.00" shape="5091.225163,3690.426882 5086.701513,3696.054085 5089.199512,3698.048992 5093.722801,3692.432904 5091.225163,3690.426882"/>
    <poly id="1154605337" type="building" color="255,230,230" fill="1" layer="-1.00" shape="5078.538301,3671.700996 5084.586248,3676.826481 5088.714272,3671.976346 5082.665962,3666.861970 5078.538301,3671.700996"/>
    <poly id="1154605338" type="building" color="255,230,230" fill="1" layer="-1.00" shape="5132.345328,3548.040101 5137.385354,3550.907665 5140.660080,3545.195357 5135.627449,3542.328031 5132.345328,3548.040101"/>
    <poly id="1163788940" type="building" color="255,230,230" fill="1" layer="-1.00" shape="3021.622151,1401.551400 3019.229975,1407.738244 3007.387023,1403.185535 3009.779187,1396.998687 3021.622151,1401.551400"/>
    <poly id="1163788941" type="building" color="255,230,230" fill="1" layer="-1.00" shape="3028.138707,1404.909389 3026.314098,1410.958713 3038.320984,1414.559928 3040.145961,1408.499494 3028.138707,1404.909389"/>
    <poly id="1164055041" type="building" color="255,230,230" fill="1" layer="-1.00" shape="2991.616703,1480.035180 2983.820191,1476.157698 2989.798841,1464.200637 2997.595724,1468.067012 2991.616703,1480.035180"/>
    <poly id="1164055042" type="building" color="255,230,230" fill="1" layer="-1.00" shape="3127.274226,1680.774669 3123.572814,1679.287179 3126.206631,1672.729876 3129.908047,1674.217368 3127.274226,1680.774669"/>
    <poly id="1164328003" type="building" color="255,230,230" fill="1" layer="-1.00" shape="2943.217060,1381.041985 2940.314181,1388.135876 2935.896387,1386.336243 2938.799261,1379.242350 2943.217060,1381.041985"/>
    <poly id="1164328004" type="building" color="255,230,230" fill="1" layer="-1.00" shape="2928.444606,1374.259222 2938.263819,1378.379603 2935.086870,1385.931968 2925.267311,1381.822706 2928.444606,1374.259222"/>
    <poly id="1164328005" type="building" color="255,230,230" fill="1" layer="-1.00" shape="2826.434012,1357.109728 2829.743928,1357.182613 2829.602436,1363.897932 2826.299569,1363.836398 2826.434012,1357.109728"/>
    <poly id="1164594179" type="building" color="255,230,230" fill="1" layer="-1.00" shape="2993.891676,1373.035337 2978.783102,1369.334561 2981.279456,1359.212583 2996.387699,1362.924479 2995.663858,1365.849507 2993.891676,1373.035337"/>
    <poly id="1164594180" type="building" color="255,230,230" fill="1" layer="-1.00" shape="3013.630218,1377.697116 3014.796910,1366.987262 3024.647333,1368.060378 3023.480623,1378.770231 3013.630218,1377.697116"/>
    <poly id="1164792864" type="building" color="255,230,230" fill="1" layer="-1.00" shape="2962.738513,1394.997626 2958.093662,1393.346439 2960.138388,1387.593435 2964.783600,1389.233510 2962.738513,1394.997626"/>
    <poly id="1164792865" type="building" color="255,230,230" fill="1" layer="-1.00" shape="2949.029278,1382.107627 2959.856703,1385.982297 2956.935402,1394.110271 2946.107634,1390.246721 2949.029278,1382.107627"/>
    <poly id="1164995653" type="building" color="255,230,230" fill="1" layer="-1.00" shape="2971.499445,1361.713128 2963.342316,1359.136921 2965.584284,1352.088559 2973.734021,1354.664531 2971.499445,1361.713128"/>
    <poly id="1164995654" type="building" color="255,230,230" fill="1" layer="-1.00" shape="2949.904776,1360.852458 2951.935150,1354.854227 2962.447993,1358.373898 2960.425010,1364.372363 2949.904776,1360.852458"/>
    <poly id="1165308694" type="building" color="255,230,230" fill="1" layer="-1.00" shape="2941.124795,1353.906161 2933.650540,1351.062669 2935.931508,1345.105860 2943.398369,1347.949117 2941.124795,1353.906161"/>
    <poly id="1165308695" type="building" color="255,230,230" fill="1" layer="-1.00" shape="2920.512457,1349.683851 2924.114688,1339.964519 2935.173016,1344.035688 2931.578170,1353.755250 2920.512457,1349.683851"/>
    <poly id="1165551534" type="building" color="255,230,230" fill="1" layer="-1.00" shape="2912.174052,1339.369600 2908.063540,1337.691117 2910.346796,1332.123769 2914.464357,1333.813605 2912.174052,1339.369600"/>
    <poly id="1165551535" type="building" color="255,230,230" fill="1" layer="-1.00" shape="2891.387525,1336.877400 2895.471409,1326.695120 2907.535866,1331.510584 2903.444560,1341.692617 2891.387525,1336.877400"/>
    <poly id="1166030659" type="building" color="255,230,230" fill="1" layer="-1.00" shape="2882.154545,1330.650942 2875.642806,1328.060952 2878.454300,1321.041976 2884.966045,1323.631969 2882.154545,1330.650942"/>
    <poly id="1166030660" type="building" color="255,230,230" fill="1" layer="-1.00" shape="2860.885889,1324.249412 2865.228555,1312.929486 2878.412874,1317.947728 2874.069827,1329.278759 2860.885889,1324.249412"/>
    <poly id="1166285462" type="building" color="255,230,230" fill="1" layer="-1.00" shape="5036.558108,1806.239691 5038.248168,1797.783335 5052.360914,1800.600676 5050.663431,1809.056788 5036.558108,1806.239691"/>
    <poly id="1166285463" type="building" color="255,230,230" fill="1" layer="-1.00" shape="5012.806040,1800.438957 5015.025390,1791.654893 5028.511344,1795.063728 5026.284572,1803.847547 5012.806040,1800.438957"/>
    <poly id="1167303174" type="building" color="255,230,230" fill="1" layer="-1.00" shape="5323.746552,1706.835639 5324.573977,1697.349936 5333.950448,1698.166918 5333.115604,1707.652379 5323.746552,1706.835639"/>
    <poly id="1167999573" type="building" color="255,230,230" fill="1" layer="-1.00" shape="4760.636990,1747.369040 4755.865653,1747.125211 4756.214355,1740.260767 4760.985698,1740.504596 4760.636990,1747.369040"/>
    <poly id="1168173763" type="building" color="255,230,230" fill="1" layer="-1.00" shape="5127.926504,1859.109249 5127.086361,1844.384660 5135.444979,1843.911010 5136.285101,1858.635600 5127.926504,1859.109249"/>
    <poly id="1172201397" type="building" color="255,230,230" fill="1" layer="-1.00" shape="3772.386726,4713.831113 3774.377251,4718.924268 3780.234784,4716.643578 3778.236865,4711.550182 3772.386726,4713.831113"/>
    <poly id="118852355" type="building" color="255,230,230" fill="1" layer="-1.00" shape="3554.565832,3796.390391 3543.784137,3805.032204 3549.017819,3811.553813 3559.822068,3802.901611 3554.565832,3796.390391"/>
    <poly id="118856659" type="building" color="255,230,230" fill="1" layer="-1.00" shape="3567.439431,3778.926619 3575.413813,3772.586312 3571.368819,3767.560498 3568.641763,3764.157056 3560.674419,3770.508725 3567.439431,3778.926619"/>
    <poly id="118856662" type="building" color="255,230,230" fill="1" layer="-1.00" shape="3561.220171,3783.899459 3567.439431,3778.926619 3560.674419,3770.508725 3559.656486,3769.229807 3558.303216,3770.309852 3553.437224,3774.202655 3561.220171,3783.899459"/>
    <poly id="118856663" type="building" color="255,230,230" fill="1" layer="-1.00" shape="3602.878288,3756.527903 3594.252439,3747.015234 3571.368819,3767.560498 3575.413813,3772.586312 3579.719694,3777.331278 3602.878288,3756.527903"/>
    <poly id="118856667" type="building" color="255,230,230" fill="1" layer="-1.00" shape="3593.084322,3787.352838 3585.940889,3779.645875 3572.368480,3792.136113 3579.518954,3799.854412 3593.084322,3787.352838"/>
    <poly id="118857737" type="building" color="255,230,230" fill="1" layer="-1.00" shape="3498.688657,3748.605612 3508.670391,3740.883600 3501.216316,3731.319866 3491.234578,3739.041891 3498.688657,3748.605612"/>
    <poly id="118858391" type="building" color="255,230,230" fill="1" layer="-1.00" shape="3534.459821,3782.268607 3545.209176,3774.170892 3541.259402,3768.947909 3541.790969,3768.542276 3538.402067,3764.071684 3534.690288,3766.855781 3533.340716,3765.065514 3525.757125,3770.773189 3527.106698,3772.563454 3528.435148,3774.319662 3527.486230,3775.034481 3532.068373,3781.090028 3533.024689,3780.375448 3534.459821,3782.268607"/>
    <poly id="118863520" type="building" color="255,230,230" fill="1" layer="-1.00" shape="3529.964669,3824.957679 3546.333706,3845.167073 3549.535133,3842.589038 3552.523651,3840.182149 3555.664457,3837.646665 3539.302827,3817.437483 3529.964669,3824.957679"/>
    <poly id="118863520#1" type="shop" color="237,199,255" fill="1" layer="-1.00" shape="3529.964669,3824.957679 3546.333706,3845.167073 3549.535133,3842.589038 3552.523651,3840.182149 3555.664457,3837.646665 3539.302827,3817.437483 3529.964669,3824.957679"/>
    <poly id="118870599" type="building" color="255,230,230" fill="1" layer="-1.00" shape="3655.477317,3314.163730 3662.925659,3319.555307 3671.064181,3308.380700 3663.608431,3302.988873 3655.477317,3314.163730"/>
    <poly id="118871330" type="building" color="255,230,230" fill="1" layer="-1.00" shape="3688.896394,3307.621133 3696.064198,3313.671245 3704.148983,3304.163807 3696.981174,3298.113685 3688.896394,3307.621133"/>
    <poly id="118871331" type="building" color="255,230,230" fill="1" layer="-1.00" shape="3685.404947,3287.960528 3677.480558,3281.251848 3668.595002,3291.701419 3676.527144,3298.399211 3685.404947,3287.960528"/>
    <poly id="118871333" type="building" color="255,230,230" fill="1" layer="-1.00" shape="3670.541784,3344.077447 3673.770514,3339.286326 3664.540693,3333.091816 3661.304209,3337.893818 3650.529420,3330.681535 3642.375642,3342.790237 3662.387620,3356.197236 3664.069931,3357.319597 3672.224097,3345.199811 3670.541784,3344.077447"/>
    <poly id="118872303" type="building" color="255,230,230" fill="1" layer="-1.00" shape="3684.833118,3245.085743 3680.811029,3251.275350 3686.543235,3254.987211 3690.573087,3248.786732 3684.833118,3245.085743"/>
    <poly id="118872304" type="building" color="255,230,230" fill="1" layer="-1.00" shape="3720.360641,3255.622610 3709.113237,3248.361588 3703.820008,3256.523908 3715.067400,3263.784920 3720.360641,3255.622610"/>
    <poly id="118872307" type="building" color="255,230,230" fill="1" layer="-1.00" shape="3689.720404,3243.073961 3698.079721,3248.472731 3703.575390,3240.005420 3695.216065,3234.606642 3689.720404,3243.073961"/>
    <poly id="118872309" type="building" color="255,230,230" fill="1" layer="-1.00" shape="3676.652630,3238.735952 3671.640544,3246.451218 3680.290128,3252.037340 3685.302222,3244.322081 3676.652630,3238.735952"/>
    <poly id="118873195" type="building" color="255,230,230" fill="1" layer="-1.00" shape="3367.277061,3173.120325 3377.610280,3183.021348 3386.255040,3174.054430 3375.914417,3164.153153 3367.277061,3173.120325"/>
    <poly id="118873196" type="building" color="255,230,230" fill="1" layer="-1.00" shape="3351.125795,3193.894571 3359.139235,3201.072914 3373.181987,3185.504336 3365.168898,3178.314859 3351.125795,3193.894571"/>
    <poly id="118873197" type="building" color="255,230,230" fill="1" layer="-1.00" shape="3400.855227,3154.064719 3393.419183,3173.795740 3386.338072,3183.202430 3396.287770,3190.521095 3404.460754,3180.103786 3413.399996,3159.241895 3400.855227,3154.064719"/>
    <poly id="118873198" type="building" color="255,230,230" fill="1" layer="-1.00" shape="3422.284090,3201.694614 3417.901928,3197.459130 3412.722983,3202.777202 3417.105143,3207.012682 3422.284090,3201.694614"/>
    <poly id="118873199" type="building" color="255,230,230" fill="1" layer="-1.00" shape="3396.346521,3145.018875 3389.770861,3150.002696 3395.683790,3157.769824 3402.266848,3152.786249 3396.346521,3145.018875"/>
    <poly id="118873200" type="building" color="255,230,230" fill="1" layer="-1.00" shape="3359.731218,3163.153362 3353.621812,3168.152242 3359.638606,3175.455398 3365.755410,3170.456762 3359.731218,3163.153362"/>
    <poly id="118873723" type="building" color="255,230,230" fill="1" layer="-1.00" shape="3440.582669,3271.508510 3450.582105,3260.271207 3442.206033,3252.858521 3443.766243,3251.106445 3439.603382,3247.423168 3428.043387,3260.423685 3440.582669,3271.508510"/>
    <poly id="118873724" type="building" color="255,230,230" fill="1" layer="-1.00" shape="3426.537063,3229.245415 3430.630124,3233.026562 3435.464367,3227.830905 3431.371306,3224.049754 3426.537063,3229.245415"/>
    <poly id="118873726" type="building" color="255,230,230" fill="1" layer="-1.00" shape="3392.017851,3271.768008 3416.666914,3281.752164 3421.469319,3269.957928 3408.234594,3264.591599 3407.631252,3266.074126 3396.224629,3261.445406 3392.017851,3271.768008"/>
    <poly id="118873728" type="building" color="255,230,230" fill="1" layer="-1.00" shape="3401.527370,3244.927729 3422.883755,3251.123192 3425.008208,3243.815318 3413.874975,3240.586088 3414.716565,3237.687150 3410.452679,3236.448295 3409.611092,3239.347234 3403.659197,3237.620085 3401.527370,3244.927729"/>
    <poly id="118873732" type="building" color="255,230,230" fill="1" layer="-1.00" shape="3377.896666,3238.736949 3369.160580,3249.392038 3378.269692,3256.817104 3387.005785,3246.162029 3381.902624,3242.003471 3377.896666,3238.736949"/>
    <poly id="118873734" type="building" color="255,230,230" fill="1" layer="-1.00" shape="3394.532333,3260.400686 3400.844837,3238.753221 3394.848898,3237.013537 3388.884533,3244.409077 3385.028641,3257.635673 3394.532333,3260.400686"/>
    <poly id="118873784" type="building" color="255,230,230" fill="1" layer="-1.00" shape="3387.005785,3246.162029 3398.062398,3232.689058 3392.937389,3228.518661 3381.902624,3242.003471 3387.005785,3246.162029"/>
    <poly id="118873821" type="building" color="255,230,230" fill="1" layer="-1.00" shape="3429.864792,3332.387829 3421.864548,3323.429681 3411.523831,3332.620024 3419.517034,3341.566804 3429.864792,3332.387829"/>
    <poly id="118874213" type="building" color="255,230,230" fill="1" layer="-1.00" shape="3313.728944,3242.288285 3305.120448,3251.746001 3316.227020,3261.783080 3324.835521,3252.325381 3313.728944,3242.288285"/>
    <poly id="118874838" type="building" color="255,230,230" fill="1" layer="-1.00" shape="3339.389732,3282.499814 3336.058143,3286.353239 3339.828009,3289.589875 3335.272592,3294.872468 3340.837389,3299.646644 3345.000021,3294.829807 3348.724041,3290.521750 3339.389732,3282.499814"/>
    <poly id="118875429" type="building" color="255,230,230" fill="1" layer="-1.00" shape="3555.956691,3273.303634 3567.009854,3279.011604 3574.844151,3263.944178 3563.798723,3258.225318 3555.956691,3273.303634"/>
    <poly id="118875430" type="building" color="255,230,230" fill="1" layer="-1.00" shape="3557.222605,3254.953648 3559.023410,3251.484874 3551.475052,3247.581065 3549.666851,3251.049602 3540.770294,3246.457036 3532.983694,3261.425912 3551.614120,3271.060818 3559.401117,3256.080853 3557.222605,3254.953648"/>
    <poly id="118875488" type="building" color="255,230,230" fill="1" layer="-1.00" shape="3591.033226,3260.160729 3593.845839,3261.608798 3598.908259,3251.870212 3586.769693,3245.593134 3581.699891,3255.331492 3586.202752,3257.657382 3591.033226,3260.160729"/>
    <poly id="118875790" type="building" color="255,230,230" fill="1" layer="-1.00" shape="3559.814371,3244.645815 3560.832440,3251.665603 3576.841019,3249.344886 3572.824906,3242.951565 3559.814371,3244.645815"/>
    <poly id="118876075" type="building" color="255,230,230" fill="1" layer="-1.00" shape="3586.216626,3236.329818 3596.322413,3227.777482 3587.229760,3217.092747 3577.123970,3225.645100 3586.216626,3236.329818"/>
    <poly id="118876078" type="building" color="255,230,230" fill="1" layer="-1.00" shape="3572.941401,3223.952590 3576.330443,3221.080210 3571.276984,3215.154089 3567.888300,3218.015358 3572.941401,3223.952590"/>
    <poly id="118876502" type="building" color="255,230,230" fill="1" layer="-1.00" shape="3525.849339,3202.185052 3534.154807,3199.382178 3527.429413,3187.872704 3520.259799,3191.746905 3525.849339,3202.185052"/>
    <poly id="118876503" type="building" color="255,230,230" fill="1" layer="-1.00" shape="3545.835948,3233.859202 3534.154807,3199.382178 3525.849339,3202.185052 3524.314071,3202.702957 3527.540650,3212.219357 3525.368863,3212.950376 3533.830883,3237.911214 3545.835948,3233.859202"/>
    <poly id="118876665" type="building" color="255,230,230" fill="1" layer="-1.00" shape="3500.205343,3213.173700 3509.191212,3219.593694 3518.768059,3206.306867 3509.782536,3199.875744 3500.205343,3213.173700"/>
    <poly id="118876884" type="building" color="255,230,230" fill="1" layer="-1.00" shape="3559.150780,3197.006334 3555.528016,3193.574030 3549.785077,3199.608093 3553.407841,3203.040393 3559.150780,3197.006334"/>
    <poly id="118876885" type="building" color="255,230,230" fill="1" layer="-1.00" shape="3528.717236,3184.231620 3547.478477,3201.992489 3555.506175,3193.562200 3553.349987,3191.512283 3555.910829,3188.824569 3549.132302,3182.408933 3546.571461,3185.096650 3536.744926,3175.801305 3528.717236,3184.231620"/>
    <poly id="118876986" type="building" color="255,230,230" fill="1" layer="-1.00" shape="3562.000405,3235.893625 3563.604679,3241.274587 3571.794326,3238.846310 3570.190059,3233.465345 3566.485540,3221.085316 3552.327285,3225.290359 3556.024431,3237.670139 3562.000405,3235.893625"/>
    <poly id="118877088" type="building" color="255,230,230" fill="1" layer="-1.00" shape="3520.530802,3163.585335 3528.095198,3170.671567 3539.860753,3158.200770 3532.296353,3151.114523 3520.530802,3163.585335"/>
    <poly id="118878022" type="amenity" color="237,199,199" fill="1" layer="-1.00" shape="3625.992084,3260.543120 3648.657500,3273.913278 3648.156294,3274.753786 3652.084078,3276.994419 3652.936928,3275.586721 3655.549079,3275.671013 3657.336559,3274.682876 3658.587115,3272.887486 3659.647333,3270.563044 3659.583488,3268.180077 3659.003577,3265.491188 3659.914194,3264.129857 3655.785436,3261.459956 3654.853696,3262.787228 3632.894104,3249.350815 3630.870800,3252.367359 3628.559231,3251.002193 3625.568369,3255.767637 3627.951066,3257.224104 3625.992084,3260.543120"/>
    <poly id="118878022#1" type="building" color="255,230,230" fill="1" layer="-1.00" shape="3625.992084,3260.543120 3648.657500,3273.913278 3648.156294,3274.753786 3652.084078,3276.994419 3652.936928,3275.586721 3655.549079,3275.671013 3657.336559,3274.682876 3658.587115,3272.887486 3659.647333,3270.563044 3659.583488,3268.180077 3659.003577,3265.491188 3659.914194,3264.129857 3655.785436,3261.459956 3654.853696,3262.787228 3632.894104,3249.350815 3630.870800,3252.367359 3628.559231,3251.002193 3625.568369,3255.767637 3627.951066,3257.224104 3625.992084,3260.543120"/>
    <poly id="118928751" type="building" color="255,230,230" fill="1" layer="-1.00" shape="3650.544793,3824.141855 3644.739503,3830.974839 3652.705436,3838.207773 3665.627388,3824.072369 3663.289030,3821.938631 3664.674687,3820.314494 3660.910979,3817.133435 3659.648014,3818.628025 3657.151175,3816.355666 3652.924033,3821.337076 3650.550567,3821.438486 3650.544793,3824.141855"/>
    <poly id="118928752" type="building" color="255,230,230" fill="1" layer="-1.00" shape="3718.136578,3686.817977 3711.267069,3680.721806 3708.486369,3676.916036 3732.856703,3643.157389 3747.339885,3653.638201 3742.627185,3660.116978 3729.851869,3650.881774 3725.875857,3656.338528 3735.386903,3663.209801 3718.136578,3686.817977"/>
    <poly id="118928753" type="building" color="255,230,230" fill="1" layer="-1.00" shape="3682.853444,3851.218934 3684.845240,3851.238727 3685.269146,3849.349909 3691.870475,3844.244901 3684.632498,3834.654497 3667.124188,3847.918649 3674.763162,3857.477470 3682.853444,3851.218934"/>
    <poly id="118928754" type="building" color="255,230,230" fill="1" layer="-1.00" shape="3667.124188,3847.918649 3674.763162,3857.477470 3669.569082,3861.437464 3664.679848,3861.001508 3663.035142,3862.161128 3661.540971,3860.722183 3656.673575,3860.298064 3651.197458,3853.490377 3659.590274,3846.807670 3662.986563,3851.044941 3667.124188,3847.918649"/>
    <poly id="118928755" type="building" color="255,230,230" fill="1" layer="-1.00" shape="3703.361558,3686.296483 3711.267069,3680.721806 3718.136578,3686.817977 3722.837749,3694.001228 3716.691582,3698.308725 3717.172847,3699.002933 3713.876643,3701.299678 3713.395019,3700.616585 3703.361558,3686.296483"/>
    <poly id="118928756" type="building" color="255,230,230" fill="1" layer="-1.00" shape="3638.957141,3837.786317 3644.739503,3830.974839 3652.705436,3838.207773 3659.590274,3846.807670 3651.197458,3853.490377 3646.154873,3847.019335 3644.063434,3846.873957 3644.255710,3844.588259 3638.957141,3837.786317"/>
    <poly id="118932916" type="building" color="255,230,230" fill="1" layer="-1.00" shape="3681.480485,3638.127738 3691.799003,3628.247375 3686.839337,3623.102949 3676.528219,3632.983559 3681.480485,3638.127738"/>
    <poly id="118944815" type="building" color="255,230,230" fill="1" layer="-1.00" shape="4203.971949,3015.851018 4212.387454,3025.691560 4222.305273,3017.267691 4213.889769,3007.427134 4203.971949,3015.851018"/>
    <poly id="118944818" type="building" color="255,230,230" fill="1" layer="-1.00" shape="4192.487856,3028.952690 4186.163394,3034.844953 4193.977938,3043.798208 4200.734847,3037.819817 4192.487856,3028.952690"/>
    <poly id="118944823" type="building" color="255,230,230" fill="1" layer="-1.00" shape="4191.514301,3065.903300 4197.439017,3071.446543 4204.789142,3063.618224 4198.856664,3058.085848 4191.514301,3065.903300"/>
    <poly id="118946811" type="building" color="255,230,230" fill="1" layer="-1.00" shape="4029.260444,3009.732119 4018.763785,2999.179288 4010.529849,3007.313037 4021.026506,3017.865853 4029.260444,3009.732119"/>
    <poly id="118946812" type="building" color="255,230,230" fill="1" layer="-1.00" shape="3996.832783,3015.325815 4003.405139,3021.924474 4005.294790,3020.071932 4011.960099,3026.773738 4012.702712,3026.030069 4016.567374,3022.205368 4008.172510,3013.778776 4003.329708,3008.904890 3998.822230,3013.365239 3997.961510,3012.491856 3995.964663,3014.452193 3996.832783,3015.325815"/>
    <poly id="118946814" type="building" color="255,230,230" fill="1" layer="-1.00" shape="3959.106385,3036.113107 3964.054955,3040.923619 3969.984586,3034.862599 3965.043415,3030.052321 3959.106385,3036.113107"/>