<?xml version="1.0" encoding="UTF-8"?>

<!-- generated on 12/16/25 15:39:50 by Eclipse SUMO duarouter Version 1.5.0
<configuration xmlns:xsi="http://www.w3.org/2001/XMLSchema-instance" xsi:noNamespaceSchemaLocation="http://sumo.dlr.de/xsd/duarouterConfiguration.xsd">

    <input>
        <net-file value="petershausen.net.xml"/>
        <route-files value="petershausen.trips.xml"/>
    </input>

    <output>
        <output-file value="petershausen.rou.xml"/>
        <alternatives-output value="petershausen.rou.alt.xml"/>
    </output>

    <report>
        <ignore-errors value="true"/>
    </report>

</configuration>
-->

<routes xmlns:xsi="http://www.w3.org/2001/XMLSchema-instance" xsi:noNamespaceSchemaLocation="http://sumo.dlr.de/xsd/routes_file.xsd">
    <vehicle id="0" depart="0.00">
        <route edges="123257377#7 123257377#8 995937301#0 995937301#1 995937301#2 995937301#3 995937301#4 123257376 123257370#0 123257370#1 -123257370#1 -123257370#0 -123257376 -995937301#4 -995937301#3 -995937301#2 -995937301#1 -995937301#0 -123257377#8 -123257377#7 -123257377#6 -123257377#5 -123257377#4 -123257377#3 -123257377#2 -123257377#1 -123257377#0 -123257378#1 -123257378#0 -123257374 -68995688#3 -68995688#2 -68995688#1 -68995688#0 -68995689 -26836311#1 -26836311#0 -26836310 -1011373790#4 -1011373790#3 -1011373790#2 -1011373790#1 -1011373790#0 -4274136#1 -4274136#0 -967282435 -995937306 -69194225 -22890256#2 -22890256#1 -22890256#0"/>
    </vehicle>
    <vehicle id="1" depart="2.00">
        <route edges="-1000036454#0 -58664657 -195174016 -58664648 -883249328#3 -883249328#2 -883249328#1 -883249328#0 -4279340#4 -4279340#3 -4279340#2 -4279340#1 -4279340#0 -1004110107#1 -1004110107#0 -883249217#3 -883249217#2 -883249217#1 -883249217#0 -975299937#1 -975299937#0 -1004110104#1 -1004110104#0 -118909960#8 -118909960#7 -118909960#6 -118909960#5 -118909960#4 -118909960#3 -118909960#2 -118909960#1 -118909960#0 975403172 235826280 -4246601#8 -4246601#7 -4246601#6 -4246601#4 -4246601#2 -4246601#1 -4246601#0 528472289#0 528472289#1 528472289#2 528472289#3 528472289#4 4274136#0 4274136#1 1011373790#0 1011373790#1 1011373790#2 1011373790#3 1011373790#4 26836310 26836311#0 26836311#1 68995689 68995688#0 68995688#1 68995688#2 68995688#3 123257374 123257378#0 123257378#1 123257377#0 123257377#1 123257377#2 123257377#3 123257377#4 123257377#5 123257377#6 123257377#7 123257377#8 995937301#0 995937301#1 995937301#2 995937301#3 995937301#4 123257376"/>
    </vehicle>
    <vehicle id="2" depart="4.00">
        <route edges="23801702#1 23801702#2 -23801701#2 -23801701#1 -23782071#1 -23782068#2 -23782068#1 -23782067#2 -23782067#1 -23782067#0 30610724#4 30610724#5 30610724#6 -53529026#3 -53529026#2 -53529026#1 -53529026#0 -53529027 -4356105#10 -4356105#9 -4356105#8 -4356105#7 -4356105#6 -4356105#5 -4356105#4 -4356105#3 -4356105#2 -4356105#1 -4356105#0 -967282437#3 -967282437#2 -967282437#1 -967282437#0 -43266448#12 -43266448#11 -43266448#10 -43266448#9 -43266448#8 -43266448#7 -43266448#6 -43266448#5 -43266448#3 -43266448#2 -43266448#1 -43266448#0 -995937297#1 -995937297#0 -4279715#3 -4279715#2 -4279715#1 -4279715#0 -995920878 -529145391 -119101509 -702595424 -536462562#1 -536462562#0 -971352436 -4279714#1 -4279714#0 -26836311#1 -26836311#0 -26836310 -1011373790#4 -1011373790#3 -1011373790#2 -1011373790#1 -1011373790#0 -4274136#1 -4274136#0 -528472289#4 -528472289#3 -528472289#2 -528472289#1 -528472289#0 -4246599#1 -4246599#0 -1004110102 -1004110103 -995937309 -195174014#8 -195174014#7 -195174014#6 -195174014#5 -195174014#2 -195174014#1 -195174014#0 195174014#0"/>
    </vehicle>
    <vehicle id="3" depart="6.00">
        <route edges="81712927#1 81712927#2 81712930 81712931 9713463 9779595 975403170 228131712 227918764 227918763 264979225 227925822 -58664648 -883249328#3 -883249328#2 -883249328#1 -883249328#0 -4279340#4 -4279340#3 -4279340#2 -4279340#1 -4279340#0 -1004110107#1 -1004110107#0 -883249217#3 -883249217#2 -883249217#1 -883249217#0 -975299937#1 -975299937#0 -1004110104#1 -1004110104#0 -118909960#8 -118909960#7 -118909960#6 -118909960#5 -118909960#4 -118909960#3 -118909960#2 -118909960#1 -118909960#0 975403172 235826280 -4246601#8 -4246601#7 -4246601#6 -4246601#4 -4246601#2 -4246601#1 -4246601#0 528472289#0 528472289#1 528472289#2 528472289#3 528472289#4 4274136#0 4274136#1 1011373790#0 1011373790#1 1011373790#2 1011373790#3 1011373790#4 26836310 26836311#0 26836311#1 4279714#0 4279714#1 971352436 536462562#0 536462562#1 702595424 119101509 529145391 995920878 4279715#0 4279715#1 4279715#2 4279715#3 995937297#0 995937297#1 43266448#0 43266448#1 43266448#2 43266448#3 195203769#0 195203769#1"/>
    </vehicle>
    <vehicle id="4" depart="8.00">
        <route edges="26703693#2 26703693#3 266446233 26703692 131788448 -131788448 -26703692 -266446233 -26703693#3 -26703693#2 -26703693#1 -26703693#0 -26703694#7 -26703694#6 -26703694#5 -26703694#4 -26703694#3 -26703694#2 -26703694#1 -26703694#0 -624740470#1 -624740470#0 -702594970 -24888547 -1353230096 -893873642#10 -893873642#9 -893873642#8 -893873642#6 -893873642#5 -893873642#4 -893873642#3 -893873642#2 -893873642#1 -893873642#0 -967282441 -22890455#1 -22890455#0 -967282440 -53529020 -526850492 201843650 201843649 86331186 53529022 26817998 26817997#0 26817997#1 26817997#2 32200563 26818003#0 26818003#1 864287096 747082135 747082136#0 747082136#1 747082134#0 747082134#1 1149631014#0 1149631014#1 86330874#0 86330874#1 86330874#2 86330874#3 86330874#4 86330874#5 86330874#6 86330874#7 86330874#8 86330874#9 93950885 184936601 93950884 53529025 22529726 971352433#0 971352433#1 1004110099#0 53529024#0 53529024#1 4279715#0 4279715#1 4279715#2 4279715#3 995937297#0"/>
    </vehicle>
    <vehicle id="5" depart="10.00">
        <route edges="-22529683#0 -22529682#0 93950883#0 93950883#1 93950883#2 -864287096 -26818003#1 -26818003#0 -32200563 -26817997#2 -26817997#1 -26817997#0 -26817998 -53529022 -86331186 -201843649 201843651 53529020 526850499#0 526850499#1 526850499#2 526850501 4279357 10209868 4279356 1092691689#0 1092691689#1 195174014#0 195174014#1 195174014#2 195174014#5 195174014#6 195174014#7 195174014#8 995937309 1004110103 1004110102 4246599#0 4246599#1 4246601#0 4246601#1 4246601#2 4246601#4 4246601#6 4246601#7 4246601#8 975403171 118909960#0 118909960#1 118909960#2 118909960#3 118909960#4 118909960#5 118909960#6 118909960#7 118909960#8 1004110104#0 1004110104#1 975299937#0 975299937#1 883249217#0 883249217#1 883249217#2 883249217#3 1004110107#0 1004110107#1 4279340#0 4279340#1 4279340#2 4279340#3 4279340#4 883249328#0 883249328#1 883249328#2 883249328#3 58664648 227926775 -264979225 -227918763 -227918764 -228131712 975403169 9779595 975403170"/>
    </vehicle>
    <vehicle id="6" depart="12.00">
        <route edges="228002124#4 228002124#5 228002124#6 228002124#7 228002124#8 -1241790482 -276113986 -276113983 -120597665#3 -120597665#2 -120597665#0 -1303412255#1 -1303412255#0 -4246720 1004110102 4246599#0 4246599#1 4246601#0 4246601#1 4246601#2 4246601#4 4246601#6 4246601#7 4246601#8 975403171 118909960#0 118909960#1 118909960#2 118909960#3 118909960#4 118909960#5 118909960#6 118909960#7 118909960#8 1004110104#0 1004110104#1 975299937#0 975299937#1 883249217#0 883249217#1 883249217#2 883249217#3 1004110107#0 1004110107#1 4279340#0 4279340#1 4279340#2 4279340#3 4279340#4 883249328#0 883249328#1 883249328#2 883249328#3 58664648"/>
    </vehicle>
    <vehicle id="7" depart="14.00">
        <route edges="-22529695 -86330874#6 -86330874#5 -86330874#4 -86330874#3 -86330874#2 -86330874#1 -86330874#0 -1149631014#1 -1149631014#0 -747082134#1 -747082134#0 -747082136#1 -747082136#0 -747082135 -864287096 -26818003#1 -26818003#0 -32200563 -26817997#2 -26817997#1 -26817997#0 -26817998 -53529022 -86331186 -201843649 201843651 53529020 526850499#0 526850499#1 526850499#2 526850501 4279357 10209868 4279356 1092691689#0 1092691689#1 195174014#0 195174014#1 195174014#2 195174014#5 195174014#6 195174014#7 195174014#8 995937309 1004110103 1004110102 4246599#0 4246599#1 4246601#0 4246601#1 4246601#2 4246601#4 4246601#6 4246601#7 4246601#8 975403171 118909960#0 118909960#1 118909960#2 118909960#3 118909960#4 118909960#5 118909960#6 118909960#7 118909960#8 1004110104#0 1004110104#1 975299937#0 975299937#1 883249217#0 883249217#1 883249217#2 883249217#3 1004110107#0 1004110107#1 4279340#0 4279340#1 4279340#2 4279340#3 4279340#4 883249328#0 883249328#1 883249328#2 883249328#3 58664648 195174016 58664657 1000036454#0 1000036454#1 971352432 58664671 58664672 -23806626 9717957#0 9717957#1 9723107#0 9723107#1 9723107#2 9723107#3"/>
    </vehicle>
    <vehicle id="8" depart="16.00">
        <route edges="-69685755#3 -69685755#2 -69685755#1 -69685755#0 -8047498#4 -8047498#3 -8047498#2 -8047498#1 -8047498#0 -43266448#12 -43266448#11 -43266448#10 -43266448#9 -43266448#8 -43266448#7 -43266448#6 -43266448#5 -43266448#3 -43266448#2 -43266448#1 -43266448#0 -995937297#1 -995937297#0 4298003 1004110096#0 1004110096#1 659241837 69688951 -69688951 -659241837"/>
    </vehicle>
    <vehicle id="9" depart="18.00">
        <route edges="-967282437#2 -967282437#1 -967282437#0 -43266448#12 -43266448#11 -43266448#10 -43266448#9 -43266448#8 -43266448#7 -43266448#6 -43266448#5 -43266448#3 -43266448#2 -43266448#1 -43266448#0 -995937297#1 -995937297#0 -4279715#3 -4279715#2 -4279715#1 -4279715#0 -995920878 -529145391 -119101509 -702595424 -536462562#1 -536462562#0 -971352436 -4279714#1 -4279714#0 -26836311#1 -26836311#0 -26836310 -1011373790#4 -1011373790#3 -1011373790#2 -1011373790#1 -1011373790#0 -4274136#1 -4274136#0 -528472289#4 -528472289#3 -528472289#2 -528472289#1 -528472289#0 -4246599#1 -4246599#0 -1004110102 4246720 1303412255#0 1303412255#1 120597665#0 120597665#2 120597665#3 276113983 276113986 1241790482 -22890324#14 -22890324#13 -22890324#12 -22890324#11 -22890324#10 -22890324#8 -22890324#7 -22890324#5 -22890354#2 -22890354#1 -225432431 -70520896 -70491229#1 -70491229#0 62079671"/>
    </vehicle>
    <vehicle id="10" depart="20.00">
        <route edges="995937309 1004110103 4246720 1303412255#0 1303412255#1 120597665#0 120597665#2 120597665#3 276113983 276113986 1241790482 -228002124#8 -228002124#7 -228002124#6 -228002124#5 -228002124#4 -228002124#3 -228002124#2 -228002124#1 -228002124#0 -967263723 -967263724#6 -967263724#5 -967263724#4 -967263724#3 -967263724#2 -967263724#1 -967263724#0"/>
    </vehicle>
    <vehicle id="11" depart="22.00">
        <route edges="-883249328#2 -883249328#1 -883249328#0 -4279340#4 -4279340#3 -4279340#2 -4279340#1 -4279340#0 -1004110107#1 -1004110107#0 -883249217#3 -883249217#2 -883249217#1 -883249217#0 -975299937#1 -975299937#0 -1004110104#1 -1004110104#0 -118909960#8 -118909960#7 -118909960#6 -118909960#5 -118909960#4 -118909960#3 -118909960#2 -118909960#1 -118909960#0 975403172 235826280 -4246601#8 -4246601#7 -4246601#6 -4246601#4 -4246601#2 -4246601#1 -4246601#0 528472289#0 528472289#1 528472289#2 528472289#3 528472289#4 4274136#0 4274136#1 1011373790#0 1011373790#1 1011373790#2 1011373790#3 1011373790#4 26836310 26836311#0 26836311#1 4279714#0 4279714#1 971352436 536462562#0 536462562#1 702595424 119101509 529145391 995920878 4279715#0 4279715#1 4279715#2 4279715#3 995937297#0 995937297#1 43266448#0 43266448#1 43266448#2 43266448#3 43266448#5 43266448#6 43266448#7 43266448#8 43266448#9 43266448#10 43266448#11 43266448#12 8047498#0 8047498#1 8047498#2"/>
    </vehicle>
    <vehicle id="12" depart="24.00">
        <route edges="-131788448 -26703692 -266446233 -26703693#3 -26703693#2 -26703693#1 -26703693#0 -26703694#7 -26703694#6 -26703694#5 -26703694#4 -26703694#3 -26703694#2 -26703694#1 -26703694#0 -624740470#1 -624740470#0 -702594970 -24888547 -945458652 -945458651 -22890454 305964370 -893873218 -22890338 526850501 4279357 10209868 4279356 1092691689#0 1092691689#1 195174014#0 195174014#1 195174014#2 195174014#5 195174014#6 195174014#7 195174014#8 995937309 1004110103 1004110102 4246599#0 4246599#1 4246601#0 4246601#1 4246601#2 4246601#4 4246601#6 4246601#7 4246601#8 975403171 118909960#0 118909960#1 118909960#2 118909960#3 118909960#4 118909960#5 118909960#6 118909960#7 118909960#8 1004110104#0 1004110104#1 975299937#0 975299937#1 883249217#0 883249217#1 883249217#2 883249217#3 1004110107#0 1004110107#1 4279340#0 4279340#1 4279340#2 4279340#3 4279340#4 883249328#0 883249328#1 883249328#2 883249328#3 58664648 227926775 -264979225 227925146 -48768229#1 -48768229#0 -33910481 -4356107#1"/>
    </vehicle>
    <vehicle id="13" depart="26.00">
        <route edges="1011373790#0 1011373790#1 1011373790#2 1011373790#3 -1011373790#3 -1011373790#2 -1011373790#1 -1011373790#0 -4274136#1 -4274136#0 -528472289#4 -528472289#3 -528472289#2 -528472289#1 -528472289#0 4246601#0 4246601#1 4246601#2 22894451#0 22894451#1 22894451#2 886649688"/>
    </vehicle>
    <vehicle id="14" depart="28.00">
        <route edges="93950883#1 93950883#2 -864287096 -26818003#1 -26818003#0 -32200563 -26817997#2 -26817997#1 -26817997#0 -26817998 -53529022 -86331186 -201843649 201843651 53529020 526850499#0 526850499#1 526850499#2 22890338 893873218 526850500#0 526850500#1 69757357#0 69757357#1 69757357#2 69757357#3 69757357#4 -225431806 -22890344#2 -22890344#1 22890351 70491229#0 70491229#1 -70491229#1"/>
    </vehicle>
    <vehicle id="15" depart="30.00">
        <route edges="23782071#1 -23782071#1 -23782068#2 -23782068#1 -23782067#2 -23782067#1 -23782067#0 30610724#4 30610724#5 30610724#6 -53529026#3 -53529026#2 -53529026#1 -53529026#0 -53529027 -4356105#10 -4356105#9 -4356105#8 -4356105#7 -4356105#6 -4356105#5 -4356105#4 -4356105#3 -4356105#2 -4356105#1 -4356105#0 -967282437#3 -967282437#2 -967282437#1 -967282437#0 -43266448#12 -43266448#11 -43266448#10 -43266448#9 -43266448#8 -43266448#7 -43266448#6 -43266448#5 -43266448#3 -43266448#2 -43266448#1 -43266448#0 -995937297#1 -995937297#0 -4279715#3 -4279715#2 -4279715#1 -4279715#0 -53529024#1 -53529024#0 -1004110099#0 -971352433#1 -971352433#0 -22529726 -53529025 -93950884 -184936601 -93950885 -86330874#9 -86330874#8 -86330874#7 -86330874#6 -86330874#5 -86330874#4 -86330874#3 -86330874#2 -86330874#1 -86330874#0 -1149631014#1 -1149631014#0 -747082134#1 -747082134#0 -747082136#1 -747082136#0 -747082135 -864287096 -26818003#1 -26818003#0 -32200563 -26817997#2 -26817997#1 -26817997#0 -26817998 -53529022 -86331186 86331186"/>
    </vehicle>
    <vehicle id="16" depart="32.00">
        <route edges="70940872#4 70940870 -883249217#2 -883249217#1"/>
    </vehicle>
    <vehicle id="17" depart="34.00">
        <route edges="-4356105#0 4356105#0 4356105#1 4356105#2 4356105#3 4356105#4 4356105#5 4356105#6 4356105#7 4356105#8 4356105#9 4356105#10 53529027 53529026#0 53529026#1 53529026#2 53529026#3 -30610724#6 -30610724#5 -30610724#4 23782067#0 23782067#1 23782067#2 23782068#1 23782068#2 23782071#1 -23782071#1"/>
    </vehicle>
    <vehicle id="18" depart="36.00">
        <route edges="25910484#3 25910484#4 195174014#0 195174014#1 195174014#2 195174014#5 195174014#6 195174014#7 195174014#8 995937309 1004110103 1004110102 4246599#0 4246599#1 528472289#0 528472289#1 528472289#2 528472289#3 528472289#4 4274136#0 4274136#1 1011373790#0 1011373790#1 1011373790#2 1011373790#3 1011373790#4 26836310 26836311#0 26836311#1 4279714#0 4279714#1 971352436 536462562#0 536462562#1 702595424 119101509 529145391 995920878 4279715#0 4279715#1 4279715#2 4279715#3 995937297#0 995937297#1 43266448#0 43266448#1 43266448#2 43266448#3 43266448#5 43266448#6 43266448#7 43266448#8 43266448#9 43266448#10 43266448#11 43266448#12 8047498#0 8047498#1 8047498#2 8047498#3 8047498#4 967282438#0 967282438#1 967282438#2 967282438#3 967282438#4 4279730 211772934 4279717 -4279717 -211772934"/>
    </vehicle>
    <vehicle id="19" depart="38.00">
        <route edges="-4279340#1 -4279340#0 4279340#0 4279340#1 4279340#2 4279340#3 4279340#4 883249328#0 883249328#1 883249328#2 883249328#3 58664648 195174016 58664657 1000036454#0 1000036454#1 971352432 58664671 58664672 -23806626 9717957#0 9717957#1"/>
    </vehicle>
    <vehicle id="20" depart="40.00">
        <route edges="-38756101#0 38756101#0 22890324#10 22890324#11 22890324#12 22890324#13 22890324#14 -1241790482 -276113986 -276113983 -120597665#3 -120597665#2 -120597665#0 -1303412255#1 -1303412255#0 -4246720 -1004110103 -995937309 -195174014#8 -195174014#7 -195174014#6 -195174014#5 -195174014#2 -195174014#1 -195174014#0 -25910484#4 -25910484#3 -25910484#2 -25910484#1 -25910484#0 25910484#0 25910484#1"/>
    </vehicle>
    <vehicle id="21" depart="42.00">
        <route edges="-22529736 53529024#0 53529024#1 4279715#0 4279715#1 4279715#2 4279715#3 995937297#0 995937297#1 43266448#0 43266448#1 43266448#2 43266448#3 43266448#5 43266448#6 43266448#7 43266448#8 43266448#9 43266448#10 43266448#11 43266448#12 967282437#0 967282437#1 967282437#2 967282437#3 -69685755#4"/>
    </vehicle>
    <vehicle id="22" depart="44.00">
        <route edges="53529026#0 53529026#1 53529026#2 -53529026#2 -53529026#1 -53529026#0 -53529027 -4356105#10 -4356105#9 -4356105#8 -4356105#7 -4356105#6 -4356105#5 -4356105#4 -4356105#3 -4356105#2 -4356105#1 -4356105#0 -967282437#3 -967282437#2 -967282437#1 -967282437#0 -43266448#12 -43266448#11 -43266448#10 -43266448#9 -43266448#8 -43266448#7 -43266448#6 -43266448#5 -43266448#3 -43266448#2 -43266448#1 -43266448#0 -995937297#1 -995937297#0 -4279715#3 -4279715#2 -4279715#1 -4279715#0 -995920878 -529145391 -119101509 -702595424 -536462562#1 -536462562#0 -971352436 -4279714#1 -4279714#0 -26836311#1 -26836311#0 -26836310 -1011373790#4 -1011373790#3 -1011373790#2 -1011373790#1 -1011373790#0 -4274136#1 -4274136#0 -528472289#4 -528472289#3 -528472289#2 -528472289#1 -528472289#0 4246601#0 4246601#1 4246601#2 4246601#4 4246601#6 4246601#7 4246601#8 975403171 118909960#0 118909960#1 118909960#2 118909960#3 118909960#4 118909960#5 118909960#6 118909960#7 118909960#8 1004110104#0 1004110104#1 975299937#0 975299937#1 883249217#0 883249217#1 883249217#2 883249217#3 1004110107#0 1004110107#1 -1004110107#1 -1004110107#0"/>
    </vehicle>
    <vehicle id="23" depart="46.00">
        <route edges="4279714#0 4279714#1 -4279714#1 -4279714#0 -26836311#1 -26836311#0 -26836310 -1011373790#4 -1011373790#3 -1011373790#2 -1011373790#1 -1011373790#0 -4274136#1 -4274136#0 -528472289#4 -528472289#3 -528472289#2 -528472289#1 -528472289#0 -4246599#1 -4246599#0 -1004110102 -1004110103 -995937309 -195174014#8 -195174014#7 -195174014#6 -195174014#5 -195174014#2 -195174014#1 -195174014#0 -1092691689#1 -1092691689#0 -4279356 -10209868 -4279357 -526850501 22890338 893873218 526850500#0 526850500#1 69757357#0 69757357#1 69757357#2 69757357#3 69757357#4 -225431806 -22890344#2 -22890344#1"/>
    </vehicle>
    <vehicle id="24" depart="48.00">
        <route edges="26703694#5 26703694#6 26703694#7 -26703694#7 -26703694#6 -26703694#5 -26703694#4 -26703694#3 -26703694#2 -26703694#1 -26703694#0 -624740470#1 -624740470#0 -702594970 -24888547 -945458652 -945458651 -22890454 -69757357#5 -225431806 -22890344#2 -22890344#1 -22890344#0 -69758653 22890324#0 22890324#1 22890324#2 -22890324#2"/>
    </vehicle>
    <vehicle id="25" depart="50.00">
        <route edges="-886649689 -69691985 -886649688 -22894451#2 -22894451#1 -22894451#0 -4246601#2 -4246601#1 -4246601#0 528472289#0 528472289#1 528472289#2 528472289#3 528472289#4 -967282435 -995937306 -69194225 128815120#0 22890285#0 22890285#1 22890285#2 22890285#3 -22890285#3 -22890285#2 -22890285#1"/>
    </vehicle>
    <vehicle id="26" depart="52.00">
        <route edges="995937309 1004110103 1004110102 4246599#0 4246599#1 528472289#0 528472289#1 528472289#2 528472289#3 528472289#4 4274136#0 4274136#1 1011373790#0 1011373790#1 1011373790#2 1011373790#3 1011373790#4 26836310 26836311#0 26836311#1 4279714#0 4279714#1 971352436 536462562#0 536462562#1 702595424 119101509 529145391 995920878 4279715#0 4279715#1 4279715#2 4279715#3 4298003 22529761#0 22529761#1 22529761#2 -73919946#1 -195214992#2"/>
    </vehicle>
    <vehicle id="27" depart="54.00">
        <route edges="227918763 264979225 227925822 -58664648 -883249328#3 -883249328#2 -883249328#1 -883249328#0 -4279340#4 -4279340#3 -4279340#2 -4279340#1 -4279340#0 -1004110107#1 -1004110107#0 -883249217#3 -883249217#2 -883249217#1 -883249217#0 -975299937#1 -975299937#0 -1004110104#1 -1004110104#0 -118909960#8 -118909960#7 -118909960#6 -118909960#5 -118909960#4 -118909960#3 -118909960#2 -118909960#1 -118909960#0 975403172 235826280 -4246601#8 -4246601#7 -4246601#6 -4246601#4 -4246601#2 -4246601#1 -4246601#0 528472289#0 528472289#1 528472289#2 528472289#3 528472289#4 4274136#0 4274136#1 1011373790#0 1011373790#1 1011373790#2 1011373790#3 1011373790#4 26836310 26836311#0 26836311#1 4279714#0 4279714#1 971352436 536462562#0 536462562#1 702595424 119101509 529145391 995920878 4279715#0 4279715#1 4279715#2 4279715#3 995937297#0 995937297#1 43266448#0"/>
    </vehicle>
    <vehicle id="28" depart="56.00">
        <route edges="-967282441 -22890455#1 -22890455#0 -967282440 -53529020 -526850492 201843650 201843649 86331186 53529022 26817998 26817997#0 26817997#1 26817997#2 32200563 26818003#0 26818003#1 864287096 747082135 747082136#0 747082136#1 747082134#0 747082134#1 1149631014#0 1149631014#1 86330874#0 86330874#1 86330874#2 86330874#3 86330874#4 86330874#5 86330874#6 86330874#7 86330874#8 86330874#9 93950885 184936601 93950884 53529025 22529726 971352433#0 971352433#1 1004110099#0 53529024#0 53529024#1 4279715#0 4279715#1 4279715#2 4279715#3 995937297#0 995937297#1 43266448#0 43266448#1 43266448#2 43266448#3 43266448#5 43266448#6 22529778#0 22529778#1 1056782248#0 1056782248#1"/>
    </vehicle>
    <vehicle id="29" depart="58.00">
        <route edges="-69597770#7 -69597770#6 -69597770#5 -69597770#4 -69597770#3 -69597770#2 -69597770#1 -69597770#0 69597769#0 69597769#1 -69588451 -69597530#1 -69597530#0 68995688#3 123257374"/>
    </vehicle>
    <vehicle id="30" depart="60.00">
        <route edges="528472289#0 -528472289#0 -4246599#1 -4246599#0 -1004110102 -1004110103 -995937309 -195174014#8 -195174014#7 -195174014#6 -195174014#5 -195174014#2 -195174014#1 -195174014#0 -1092691689#1 -1092691689#0 -4279356 -10209868 -4279357 -526850501 22890338 893873218 -305964370 22890454 945458651 945458652 24888547 702594970 624740470#0 624740470#1 26703694#0 26703694#1 26703694#2 26703694#3 26703694#4 26703694#5 26703694#6 26703694#7 26703693#0 26703693#1"/>
    </vehicle>
    <vehicle id="31" depart="62.00">
        <route edges="-26817997#0 -26817998 -53529022 -86331186 -201843649 201843651 53529020 526850499#0 526850499#1 526850499#2 526850501 4279357 10209868 4279356 1092691689#0 1092691689#1 195174014#0 195174014#1 195174014#2 195174014#5 195174014#6 195174014#7 195174014#8 995937309 1004110103 1004110102 4246599#0 4246599#1 528472289#0 528472289#1 528472289#2 528472289#3 528472289#4 4274136#0 4274136#1 1011373790#0 1011373790#1 1011373790#2 1011373790#3 1011373790#4 26836310 26836311#0 26836311#1 68995689 68995688#0 68995688#1 68995688#2 69597530#0 69597530#1 69588451 -69597769#1 -69597769#0 69597770#0 69597770#1 69597770#2 69597770#3 69597770#4 69597770#5 69597770#6 69597770#7"/>
    </vehicle>
    <vehicle id="32" depart="64.00">
        <route edges="-1303412255#0 -4246720 1004110102 4246599#0 4246599#1 4246601#0 4246601#1 4246601#2 4246601#4 4246601#6 4246601#7 4246601#8 975403171 118909960#0 118909960#1 118909960#2 118909960#3 118909960#4 118909960#5 118909960#6 118909960#7 118909960#8 1004110104#0 1004110104#1 975299937#0 975299937#1 883249217#0 883249217#1 883249217#2 883249217#3 1004110107#0 1004110107#1 4279340#0 4279340#1 4279340#2 4279340#3 4279340#4 883249328#0 883249328#1 883249328#2 883249328#3 58664648 227926775 -264979225 -227918763 -227918764 -228131712 975403169 -9713463 -81712931 -81712930 -81712927#2 -81712927#1 -81712927#0 -81712924 -154431137 -977116905#1 977116905#1 154431137 81712924 81712927#0 81712927#1 81712927#2 81712930 81712931"/>
    </vehicle>
    <vehicle id="33" depart="66.00">
        <route edges="53529026#2 -53529026#2 -53529026#1 -53529026#0 -53529027 -4356105#10 -4356105#9 -4356105#8 -4356105#7 -4356105#6 -4356105#5 -4356105#4 -4356105#3 -4356105#2 -4356105#1 -4356105#0 -967282437#3 -967282437#2 -967282437#1 -967282437#0 -43266448#12 -43266448#11 -43266448#10 -43266448#9 -43266448#8 -43266448#7 -43266448#6 -43266448#5 -43266448#3 -43266448#2 -43266448#1 -43266448#0 -995937297#1 -995937297#0 -4279715#3 -4279715#2 -4279715#1 -4279715#0 -995920878 -529145391 -119101509 -702595424 -536462562#1 -536462562#0 -971352436 -4279714#1 -4279714#0 -26836311#1 -26836311#0 -26836310 -1011373790#4 -1011373790#3 -1011373790#2 -1011373790#1 -1011373790#0 22894495#0 22894495#1 22894495#2 22894495#4 69826200 -22894497#12"/>
    </vehicle>
    <vehicle id="34" depart="68.00">
        <route edges="-228002124#7 -228002124#6 -228002124#5 228002124#5 228002124#6 228002124#7 228002124#8 -1241790482 -276113986 -276113983 -120597665#3 -120597665#2 -120597665#0 -1303412255#1 -1303412255#0 -4246720 1004110102 4246599#0 4246599#1 528472289#0 528472289#1 528472289#2 528472289#3 528472289#4 4274136#0 4274136#1 1011373790#0 1011373790#1 1011373790#2 1011373790#3 1011373790#4 26836310 26836311#0 26836311#1 68995689 68995688#0 68995688#1 68995688#2 68995688#3 123257374 123257378#0 123257378#1 123257377#0 123257377#1 123257377#2 123257377#3 123257377#4 123257377#5 123257377#6 -123257377#6 -123257377#5 -123257377#4 -123257377#3 -123257377#2"/>
    </vehicle>
    <vehicle id="35" depart="70.00">
        <route edges="9717947#0 9717947#1 -9717947#1 -9717947#0 -9713446#0 -9713457 -9713443 -58664672 -58664671 -971352432 -1000036454#1 -1000036454#0 -58664657 -195174016 -58664648 -883249328#3 -883249328#2 -883249328#1 -883249328#0 -4279340#4 -4279340#3 -4279340#2 -4279340#1 -4279340#0 -1004110107#1 -1004110107#0 -883249217#3 -120936583#2 -120936583#1 -120936583#0 22894507#0"/>
    </vehicle>
    <vehicle id="36" depart="72.00">
        <route edges="4279356 1092691689#0 1092691689#1 195174014#0 195174014#1 195174014#2 195174014#5 195174014#6 195174014#7 195174014#8 995937309 1004110103 1004110102 4246599#0 4246599#1 4246601#0 4246601#1 4246601#2 4246601#4 4246601#6 4246601#7 4246601#8 975403171 118909960#0 118909960#1 118909960#2 118909960#3 118909960#4 118909960#5 118909960#6 118909960#7 118909960#8 -1018219776#5 -1018219776#4 70940872#1 41917254"/>
    </vehicle>
    <vehicle id="37" depart="74.00">
        <route edges="-22894495#2 -22894498#1 -22894498#0 4246601#4 4246601#6 4246601#7 4246601#8 975403171 118909960#0 118909960#1 118909960#2 118909960#3 118909960#4 118909960#5 118909960#6 118909960#7 118909960#8 1004110104#0 1004110104#1 975299937#0 975299937#1 883249217#0 883249217#1 883249217#2 883249217#3 1004110107#0 1004110107#1 4279340#0 4279340#1 4279340#2 4279340#3 4279340#4 883249328#0 883249328#1 883249328#2 883249328#3 58664648 195174016 58664657 1000036454#0 1000036454#1 971352432 58664671 58664672 -23806626 9717957#0 9717957#1 967282436#0 967282436#1 526982630 9717955 -9717955 -526982630"/>
    </vehicle>
    <vehicle id="38" depart="76.00">
        <route edges="-70940872#4 70940872#4 70940870 883249217#3 1004110107#0 1004110107#1 4279340#0 4279340#1 4279340#2 4279340#3 4279340#4 883249328#0 883249328#1 883249328#2 883249328#3 58664648 227926775 -264979225 -227918763 -227918764 -228131712 975403169 9779595 228131708#0 228131708#1 228131708#2 1300312500#0 1300312500#1 9779596 967263724#0 967263724#1 967263724#2 967263724#3 967263724#4 967263724#5 967263724#6"/>
    </vehicle>
    <vehicle id="39" depart="78.00">
        <route edges="93950882#1 971352438#0 971352438#1 93950883#0 93950883#1 93950883#2 747082135 747082136#0 747082136#1 747082134#0 747082134#1 1149631014#0 1149631014#1 86330874#0 86330874#1 86330874#2 86330874#3 86330874#4 86330874#5 86330874#6 86330874#7 86330874#8 86330874#9 93950885 184936601 93950884 53529025 22529726 971352433#0 971352433#1 1004110099#0 53529024#0 53529024#1 4279715#0 4279715#1 4279715#2 4279715#3 995937297#0 995937297#1 43266448#0 43266448#1 43266448#2 43266448#3 -43266448#3 -43266448#2 -43266448#1"/>
    </vehicle>
    <vehicle id="40" depart="80.00">
        <route edges="-9713451#0 -9713446#1 -9713446#0 -9713457 -9713443 -58664672 -58664671 -971352432 -1000036454#1 -1000036454#0 -58664657 -195174016 -58664648 -883249328#3 -883249328#2 -883249328#1 -883249328#0 -4279340#4 -4279340#3 -4279340#2 -4279340#1 -4279340#0 -1004110107#1 -1004110107#0 -883249217#3 -883249217#2 -883249217#1 -883249217#0 -975299937#1 -975299937#0 -1004110104#1 -1004110104#0 -118909960#8 -118909960#7 -118909960#6 118909960#6"/>
    </vehicle>
    <vehicle id="41" depart="82.00">
        <route edges="-263884232#2 -263884232#1 -263884232#0 -22894449 263884231 1092692643#0 1092692643#1 1092692643#2 235826280 975403171 118909960#0 118909960#1 118909960#2 118909960#3 118909960#4 118909960#5 118909960#6 118909960#7 118909960#8 1004110104#0 1004110104#1 975299937#0 975299937#1 883249217#0 883249217#1 883249217#2 -883249217#2 -883249217#1 -883249217#0 -975299937#1"/>
    </vehicle>
    <vehicle id="42" depart="84.00">