<?xml version="1.0" encoding="UTF-8"?>

<!-- generated on 12/16/25 14:10:07 by Eclipse SUMO netconvert Version 1.5.0
<configuration xmlns:xsi="http://www.w3.org/2001/XMLSchema-instance" xsi:noNamespaceSchemaLocation="http://sumo.dlr.de/xsd/netconvertConfiguration.xsd">

    <input>
        <osm-files value="karlshuld_raw.osm"/>
    </input>

    <output>
        <output-file value="karlshuld.net.xml"/>
    </output>

    <projection>
        <proj.utm value="true"/>
    </projection>

    <tls_building>
        <tls.discard-simple value="true"/>
    </tls_building>

    <edge_removal>
        <keep-edges.by-vclass value="passenger"/>
        <remove-edges.isolated value="true"/>
    </edge_removal>

    <junctions>
        <no-turnarounds.tls value="true"/>
        <junctions.join value="true"/>
    </junctions>

    <report>
        <aggregate-warnings value="5"/>
    </report>

</configuration>
-->

<net version="1.3" junctionCornerDetail="5" limitTurnSpeed="5.50" xmlns:xsi="http://www.w3.org/2001/XMLSchema-instance" xsi:noNamespaceSchemaLocation="http://sumo.dlr.de/xsd/net_file.xsd">

    <location netOffset="-664753.16,-5389857.68" convBoundary="0.00,0.00,8552.05,8056.34" origBoundary="11.237792,48.639544,11.355007,48.710979" projParameter="+proj=utm +zone=32 +ellps=WGS84 +datum=WGS84 +units=m +no_defs"/>

    <type id="highway.bridleway" priority="1" numLanes="1" speed="2.78" allow="pedestrian" oneway="1" width="2.00"/>
    <type id="highway.bus_guideway" priority="1" numLanes="1" speed="27.78" allow="bus" oneway="1"/>
    <type id="highway.cycleway" priority="1" numLanes="1" speed="8.33" allow="bicycle" oneway="0" width="1.00"/>
    <type id="highway.footway" priority="1" numLanes="1" speed="2.78" allow="pedestrian" oneway="1" width="2.00"/>
    <type id="highway.ford" priority="1" numLanes="1" speed="2.78" allow="army" oneway="0"/>
    <type id="highway.living_street" priority="2" numLanes="1" speed="2.78" disallow="tram rail_urban rail rail_electric rail_fast ship" oneway="0"/>
    <type id="highway.motorway" priority="14" numLanes="2" speed="39.44" allow="private emergency authority army vip passenger hov taxi bus coach delivery truck trailer motorcycle evehicle custom1 custom2" oneway="1"/>
    <type id="highway.motorway_link" priority="9" numLanes="1" speed="22.22" allow="private emergency authority army vip passenger hov taxi bus coach delivery truck trailer motorcycle evehicle custom1 custom2" oneway="1"/>
    <type id="highway.path" priority="1" numLanes="1" speed="2.78" allow="pedestrian bicycle" oneway="1" width="2.00"/>
    <type id="highway.pedestrian" priority="1" numLanes="1" speed="2.78" allow="pedestrian" oneway="1" width="2.00"/>
    <type id="highway.primary" priority="12" numLanes="2" speed="27.78" disallow="tram rail_urban rail rail_electric rail_fast ship" oneway="0"/>
    <type id="highway.primary_link" priority="7" numLanes="1" speed="22.22" disallow="tram rail_urban rail rail_electric rail_fast ship" oneway="0"/>
    <type id="highway.raceway" priority="15" numLanes="2" speed="83.33" allow="vip" oneway="0"/>
    <type id="highway.residential" priority="3" numLanes="1" speed="13.89" disallow="tram rail_urban rail rail_electric rail_fast ship" oneway="0"/>
    <type id="highway.secondary" priority="11" numLanes="1" speed="27.78" disallow="tram rail_urban rail rail_electric rail_fast ship" oneway="0"/>
    <type id="highway.secondary_link" priority="6" numLanes="1" speed="22.22" disallow="tram rail_urban rail rail_electric rail_fast ship" oneway="0"/>
    <type id="highway.service" priority="1" numLanes="1" speed="5.56" allow="pedestrian delivery bicycle" oneway="0"/>
    <type id="highway.stairs" priority="1" numLanes="1" speed="1.39" allow="pedestrian" oneway="1" width="2.00"/>
    <type id="highway.step" priority="1" numLanes="1" speed="1.39" allow="pedestrian" oneway="1" width="2.00"/>
    <type id="highway.steps" priority="1" numLanes="1" speed="1.39" allow="pedestrian" oneway="1" width="2.00"/>
    <type id="highway.tertiary" priority="10" numLanes="1" speed="22.22" disallow="tram rail_urban rail rail_electric rail_fast ship" oneway="0"/>
    <type id="highway.tertiary_link" priority="5" numLanes="1" speed="22.22" disallow="tram rail_urban rail rail_electric rail_fast ship" oneway="0"/>
    <type id="highway.track" priority="1" numLanes="1" speed="5.56" disallow="tram rail_urban rail rail_electric rail_fast ship" oneway="0"/>
    <type id="highway.trunk" priority="13" numLanes="2" speed="27.78" disallow="pedestrian bicycle tram rail_urban rail rail_electric rail_fast ship" oneway="0"/>
    <type id="highway.trunk_link" priority="8" numLanes="1" speed="22.22" disallow="pedestrian bicycle tram rail_urban rail rail_electric rail_fast ship" oneway="0"/>
    <type id="highway.unclassified" priority="4" numLanes="1" speed="13.89" disallow="tram rail_urban rail rail_electric rail_fast ship" oneway="0"/>
    <type id="highway.unsurfaced" priority="1" numLanes="1" speed="8.33" disallow="tram rail_urban rail rail_electric rail_fast ship" oneway="0"/>
    <type id="railway.highspeed" priority="21" numLanes="1" speed="69.44" allow="rail_fast" oneway="1"/>
    <type id="railway.light_rail" priority="19" numLanes="1" speed="27.78" allow="rail_urban" oneway="1"/>
    <type id="railway.preserved" priority="16" numLanes="1" speed="27.78" allow="rail" oneway="1"/>
    <type id="railway.rail" priority="20" numLanes="1" speed="44.44" allow="rail" oneway="1"/>
    <type id="railway.subway" priority="18" numLanes="1" speed="27.78" allow="rail_urban" oneway="1"/>
    <type id="railway.tram" priority="17" numLanes="1" speed="13.89" allow="tram" oneway="1"/>

    <edge id=":10718624068_0" function="internal">
        <lane id=":10718624068_0_0" index="0" disallow="tram rail_urban rail rail_electric rail_fast ship" speed="13.89" length="0.10" shape="3383.26,4716.85 3383.26,4716.85"/>
    </edge>
    <edge id=":10718624068_1" function="internal">
        <lane id=":10718624068_1_0" index="0" disallow="tram rail_urban rail rail_electric rail_fast ship" speed="13.89" length="0.10" shape="3384.52,4713.91 3384.52,4713.91"/>
    </edge>
    <edge id=":10718624072_0" function="internal">
        <lane id=":10718624072_0_0" index="0" disallow="tram rail_urban rail rail_electric rail_fast ship" speed="13.89" length="0.30" shape="3370.73,4711.45 3370.46,4711.34"/>
    </edge>
    <edge id=":10718624072_1" function="internal">
        <lane id=":10718624072_1_0" index="0" disallow="tram rail_urban rail rail_electric rail_fast ship" speed="13.89" length="0.30" shape="3371.72,4708.40 3372.00,4708.51"/>
    </edge>
    <edge id=":10718624076_0" function="internal">
        <lane id=":10718624076_0_0" index="0" disallow="tram rail_urban rail rail_electric rail_fast ship" speed="13.89" length="0.10" shape="3197.20,4636.78 3197.20,4636.78"/>
    </edge>
    <edge id=":10718624076_1" function="internal">
        <lane id=":10718624076_1_0" index="0" disallow="tram rail_urban rail rail_electric rail_fast ship" speed="13.89" length="0.10" shape="3198.47,4633.85 3198.47,4633.85"/>
    </edge>
    <edge id=":10718624087_0" function="internal">
        <lane id=":10718624087_0_0" index="0" disallow="tram rail_urban rail rail_electric rail_fast ship" speed="13.89" length="0.30" shape="2900.62,4509.17 2900.34,4509.05"/>
    </edge>
    <edge id=":10718624087_1" function="internal">
        <lane id=":10718624087_1_0" index="0" disallow="tram rail_urban rail rail_electric rail_fast ship" speed="13.89" length="0.30" shape="2901.61,4506.11 2901.89,4506.23"/>
    </edge>
    <edge id=":10718624091_0" function="internal">
        <lane id=":10718624091_0_0" index="0" disallow="tram rail_urban rail rail_electric rail_fast ship" speed="13.89" length="0.10" shape="2971.90,4539.84 2971.90,4539.84"/>
    </edge>
    <edge id=":10718624091_1" function="internal">
        <lane id=":10718624091_1_0" index="0" disallow="tram rail_urban rail rail_electric rail_fast ship" speed="13.89" length="0.10" shape="2973.17,4536.90 2973.17,4536.90"/>
    </edge>
    <edge id=":10718624093_0" function="internal">
        <lane id=":10718624093_0_0" index="0" disallow="tram rail_urban rail rail_electric rail_fast ship" speed="13.89" length="0.10" shape="2993.34,4549.07 2993.34,4549.07"/>
    </edge>
    <edge id=":10718624093_1" function="internal">
        <lane id=":10718624093_1_0" index="0" disallow="tram rail_urban rail rail_electric rail_fast ship" speed="13.89" length="0.10" shape="2994.61,4546.13 2994.61,4546.13"/>
    </edge>
    <edge id=":10718624101_0" function="internal">
        <lane id=":10718624101_0_0" index="0" disallow="tram rail_urban rail rail_electric rail_fast ship" speed="13.89" length="0.10" shape="3347.91,4580.68 3347.91,4580.68"/>
    </edge>
    <edge id=":10718624101_1" function="internal">
        <lane id=":10718624101_1_0" index="0" disallow="tram rail_urban rail rail_electric rail_fast ship" speed="13.89" length="0.10" shape="3345.67,4578.39 3345.67,4578.39"/>
    </edge>
    <edge id=":10718624103_0" function="internal">
        <lane id=":10718624103_0_0" index="0" disallow="tram rail_urban rail rail_electric rail_fast ship" speed="13.89" length="0.10" shape="3373.89,4555.31 3373.89,4555.31"/>
    </edge>
    <edge id=":10718624103_1" function="internal">
        <lane id=":10718624103_1_0" index="0" disallow="tram rail_urban rail rail_electric rail_fast ship" speed="13.89" length="0.10" shape="3371.65,4553.02 3371.65,4553.02"/>
    </edge>
    <edge id=":10718639205_0" function="internal">
        <lane id=":10718639205_0_0" index="0" disallow="tram rail_urban rail rail_electric rail_fast ship" speed="13.89" length="0.10" shape="3335.60,4592.68 3335.60,4592.68"/>
    </edge>
    <edge id=":10718639205_1" function="internal">
        <lane id=":10718639205_1_0" index="0" disallow="tram rail_urban rail rail_electric rail_fast ship" speed="13.89" length="0.10" shape="3333.37,4590.39 3333.37,4590.39"/>
    </edge>
    <edge id=":10718639207_0" function="internal">
        <lane id=":10718639207_0_0" index="0" disallow="tram rail_urban rail rail_electric rail_fast ship" speed="13.89" length="0.10" shape="3311.98,4616.69 3311.98,4616.69"/>
    </edge>
    <edge id=":10718639207_1" function="internal">
        <lane id=":10718639207_1_0" index="0" disallow="tram rail_urban rail rail_electric rail_fast ship" speed="13.89" length="0.10" shape="3309.68,4614.47 3309.68,4614.47"/>
    </edge>
    <edge id=":10718639209_0" function="internal">
        <lane id=":10718639209_0_0" index="0" disallow="tram rail_urban rail rail_electric rail_fast ship" speed="13.89" length="0.10" shape="3359.92,4568.95 3359.92,4568.95"/>
    </edge>
    <edge id=":10718639209_1" function="internal">
        <lane id=":10718639209_1_0" index="0" disallow="tram rail_urban rail rail_electric rail_fast ship" speed="13.89" length="0.10" shape="3357.68,4566.66 3357.68,4566.66"/>
    </edge>
    <edge id=":10718639212_0" function="internal">
        <lane id=":10718639212_0_0" index="0" disallow="tram rail_urban rail rail_electric rail_fast ship" speed="13.89" length="0.10" shape="3386.54,4542.97 3386.54,4542.97"/>
    </edge>
    <edge id=":10718639212_1" function="internal">
        <lane id=":10718639212_1_0" index="0" disallow="tram rail_urban rail rail_electric rail_fast ship" speed="13.89" length="0.10" shape="3384.30,4540.68 3384.30,4540.68"/>
    </edge>
    <edge id=":10718639219_0" function="internal">
        <lane id=":10718639219_0_0" index="0" disallow="tram rail_urban rail rail_electric rail_fast ship" speed="13.89" length="0.30" shape="3762.19,4624.68 3761.98,4624.88"/>
    </edge>
    <edge id=":10718639219_1" function="internal">
        <lane id=":10718639219_1_0" index="0" disallow="tram rail_urban rail rail_electric rail_fast ship" speed="13.89" length="0.30" shape="3759.74,4622.60 3759.95,4622.39"/>
    </edge>
    <edge id=":10718639225_0" function="internal">
        <lane id=":10718639225_0_0" index="0" disallow="tram rail_urban rail rail_electric rail_fast ship" speed="13.89" length="0.54" shape="3699.59,4686.05 3699.97,4685.67"/>
    </edge>
    <edge id=":10718639225_1" function="internal">
        <lane id=":10718639225_1_0" index="0" disallow="tram rail_urban rail rail_electric rail_fast ship" speed="13.89" length="0.54" shape="3697.73,4683.39 3697.35,4683.76"/>
    </edge>
    <edge id=":10718639234_0" function="internal">
        <lane id=":10718639234_0_0" index="0" disallow="tram rail_urban rail rail_electric rail_fast ship" speed="13.89" length="0.10" shape="3637.88,4746.54 3637.88,4746.54"/>
    </edge>
    <edge id=":10718639234_1" function="internal">
        <lane id=":10718639234_1_0" index="0" disallow="tram rail_urban rail rail_electric rail_fast ship" speed="13.89" length="0.10" shape="3635.64,4744.25 3635.64,4744.25"/>
    </edge>
    <edge id=":10815010847_0" function="internal">
        <lane id=":10815010847_0_0" index="0" disallow="tram rail_urban rail rail_electric rail_fast ship" speed="18.06" length="0.27" shape="2554.57,5806.39 2554.37,5806.59"/>
    </edge>
    <edge id=":10815010847_1" function="internal">
        <lane id=":10815010847_1_0" index="0" disallow="tram rail_urban rail rail_electric rail_fast ship" speed="18.06" length="0.31" shape="2552.09,5804.34 2552.31,5804.12"/>
    </edge>
    <edge id=":10905522127_0" function="internal">
        <lane id=":10905522127_0_0" index="0" disallow="tram rail_urban rail rail_electric rail_fast ship" speed="13.89" length="0.23" shape="3836.03,2804.14 3835.84,2804.00"/>
    </edge>
    <edge id=":10905522127_1" function="internal">
        <lane id=":10905522127_1_0" index="0" disallow="tram rail_urban rail rail_electric rail_fast ship" speed="13.89" length="0.31" shape="3837.73,2801.42 3837.97,2801.60"/>
    </edge>
    <edge id=":10905522138_0" function="internal">
        <lane id=":10905522138_0_0" index="0" disallow="tram rail_urban rail rail_electric rail_fast ship" speed="13.89" length="0.29" shape="3814.63,2788.53 3814.40,2788.36"/>
    </edge>
    <edge id=":10905522138_1" function="internal">
        <lane id=":10905522138_1_0" index="0" disallow="tram rail_urban rail rail_electric rail_fast ship" speed="13.89" length="0.31" shape="3816.27,2785.76 3816.52,2785.94"/>
    </edge>
    <edge id=":10910825352_0" function="internal">
        <lane id=":10910825352_0_0" index="0" disallow="tram rail_urban rail rail_electric rail_fast ship" speed="3.65" length="4.67" shape="2587.63,5518.43 2588.87,5517.68 2589.76,5517.66 2590.31,5518.36 2590.53,5519.79"/>
    </edge>
    <edge id=":10910825353_0" function="internal">
        <lane id=":10910825353_0_0" index="0" disallow="tram rail_urban rail rail_electric rail_fast ship" speed="13.89" length="0.10" shape="2581.67,5538.67 2581.67,5538.67"/>
    </edge>
    <edge id=":10910825353_1" function="internal">
        <lane id=":10910825353_1_0" index="0" disallow="tram rail_urban rail rail_electric rail_fast ship" speed="13.89" length="0.10" shape="2578.78,5537.31 2578.78,5537.31"/>
    </edge>
    <edge id=":10910825355_0" function="internal">
        <lane id=":10910825355_0_0" index="0" disallow="tram rail_urban rail rail_electric rail_fast ship" speed="13.89" length="0.30" shape="2573.48,5556.12 2573.35,5556.39"/>
    </edge>
    <edge id=":10910825355_1" function="internal">
        <lane id=":10910825355_1_0" index="0" disallow="tram rail_urban rail rail_electric rail_fast ship" speed="13.89" length="0.30" shape="2570.45,5555.03 2570.58,5554.76"/>
    </edge>
    <edge id=":10910825357_0" function="internal">
        <lane id=":10910825357_0_0" index="0" disallow="tram rail_urban rail rail_electric rail_fast ship" speed="13.89" length="0.30" shape="2568.96,5565.44 2568.81,5565.69"/>
    </edge>
    <edge id=":10910825357_1" function="internal">
        <lane id=":10910825357_1_0" index="0" disallow="tram rail_urban rail rail_electric rail_fast ship" speed="13.89" length="0.30" shape="2566.05,5564.08 2566.21,5563.82"/>
    </edge>
    <edge id=":10910863910_0" function="internal">
        <lane id=":10910863910_0_0" index="0" disallow="tram rail_urban rail rail_electric rail_fast ship" speed="8.33" length="0.10" shape="3777.97,5331.43 3777.97,5331.43"/>
    </edge>
    <edge id=":10910863910_1" function="internal">
        <lane id=":10910863910_1_0" index="0" disallow="tram rail_urban rail rail_electric rail_fast ship" speed="8.33" length="0.10" shape="3775.89,5328.99 3775.89,5328.99"/>
    </edge>
    <edge id=":10910863912_0" function="internal">
        <lane id=":10910863912_0_0" index="0" disallow="tram rail_urban rail rail_electric rail_fast ship" speed="8.33" length="0.30" shape="3754.27,5351.64 3754.05,5351.83"/>
    </edge>
    <edge id=":10910863912_1" function="internal">
        <lane id=":10910863912_1_0" index="0" disallow="tram rail_urban rail rail_electric rail_fast ship" speed="8.33" length="0.30" shape="3751.97,5349.40 3752.20,5349.20"/>
    </edge>
    <edge id=":10910863913_0" function="internal">
        <lane id=":10910863913_0_0" index="0" disallow="tram rail_urban rail rail_electric rail_fast ship" speed="8.33" length="0.10" shape="3819.68,5337.46 3819.68,5337.46"/>
    </edge>
    <edge id=":10910863913_1" function="internal">
        <lane id=":10910863913_1_0" index="0" disallow="tram rail_urban rail rail_electric rail_fast ship" speed="8.33" length="0.10" shape="3822.79,5336.70 3822.79,5336.70"/>
    </edge>
    <edge id=":10910863918_0" function="internal">
        <lane id=":10910863918_0_0" index="0" disallow="tram rail_urban rail rail_electric rail_fast ship" speed="8.33" length="0.30" shape="3875.05,5336.00 3874.91,5335.75"/>
    </edge>
    <edge id=":10910863918_1" function="internal">
        <lane id=":10910863918_1_0" index="0" disallow="tram rail_urban rail rail_electric rail_fast ship" speed="8.33" length="0.30" shape="3877.68,5334.15 3877.83,5334.41"/>
    </edge>
    <edge id=":10910863920_0" function="internal">
        <lane id=":10910863920_0_0" index="0" disallow="tram rail_urban rail rail_electric rail_fast ship" speed="8.33" length="0.30" shape="3841.67,5347.92 3841.44,5348.11"/>
    </edge>
    <edge id=":10910863920_1" function="internal">
        <lane id=":10910863920_1_0" index="0" disallow="tram rail_urban rail rail_electric rail_fast ship" speed="8.33" length="0.30" shape="3839.40,5345.64 3839.63,5345.45"/>
    </edge>
    <edge id=":10910863924_0" function="internal">
        <lane id=":10910863924_0_0" index="0" disallow="tram rail_urban rail rail_electric rail_fast ship" speed="8.33" length="0.30" shape="3824.42,5291.23 3824.20,5291.42"/>
    </edge>
    <edge id=":10910863924_1" function="internal">
        <lane id=":10910863924_1_0" index="0" disallow="tram rail_urban rail rail_electric rail_fast ship" speed="8.33" length="0.30" shape="3822.10,5289.00 3822.33,5288.81"/>
    </edge>
    <edge id=":10910863925_0" function="internal">
        <lane id=":10910863925_0_0" index="0" disallow="tram rail_urban rail rail_electric rail_fast ship" speed="8.33" length="0.30" shape="3860.12,5269.27 3859.82,5269.32"/>
    </edge>
    <edge id=":10910863925_1" function="internal">
        <lane id=":10910863925_1_0" index="0" disallow="tram rail_urban rail rail_electric rail_fast ship" speed="8.33" length="0.30" shape="3859.20,5266.18 3859.50,5266.13"/>
    </edge>
    <edge id=":10910863927_0" function="internal">
        <lane id=":10910863927_0_0" index="0" disallow="tram rail_urban rail rail_electric rail_fast ship" speed="8.33" length="0.10" shape="3915.28,5345.76 3915.28,5345.76"/>
    </edge>
    <edge id=":10910863927_1" function="internal">
        <lane id=":10910863927_1_0" index="0" disallow="tram rail_urban rail rail_electric rail_fast ship" speed="8.33" length="0.10" shape="3913.09,5343.42 3913.09,5343.42"/>
    </edge>
    <edge id=":10910863929_0" function="internal">
        <lane id=":10910863929_0_0" index="0" disallow="tram rail_urban rail rail_electric rail_fast ship" speed="8.33" length="0.10" shape="3903.89,5384.74 3903.89,5384.74"/>
    </edge>
    <edge id=":10910863929_1" function="internal">
        <lane id=":10910863929_1_0" index="0" disallow="tram rail_urban rail rail_electric rail_fast ship" speed="8.33" length="0.10" shape="3906.22,5382.54 3906.22,5382.54"/>
    </edge>
    <edge id=":10910863932_0" function="internal">
        <lane id=":10910863932_0_0" index="0" disallow="tram rail_urban rail rail_electric rail_fast ship" speed="8.33" length="0.10" shape="3826.71,5380.31 3826.70,5380.31"/>
    </edge>
    <edge id=":10910863932_1" function="internal">
        <lane id=":10910863932_1_0" index="0" disallow="tram rail_urban rail rail_electric rail_fast ship" speed="8.33" length="0.10" shape="3829.74,5379.28 3829.74,5379.28"/>
    </edge>
    <edge id=":10910863936_0" function="internal">
        <lane id=":10910863936_0_0" index="0" disallow="tram rail_urban rail rail_electric rail_fast ship" speed="8.33" length="0.30" shape="3929.91,5411.19 3929.70,5410.98"/>
    </edge>
    <edge id=":10910863936_1" function="internal">
        <lane id=":10910863936_1_0" index="0" disallow="tram rail_urban rail rail_electric rail_fast ship" speed="8.33" length="0.30" shape="3931.96,5408.72 3932.17,5408.93"/>
    </edge>
    <edge id=":10910863939_0" function="internal">
        <lane id=":10910863939_0_0" index="0" disallow="tram rail_urban rail rail_electric rail_fast ship" speed="8.33" length="0.30" shape="3757.84,5421.37 3757.60,5421.56"/>
    </edge>
    <edge id=":10910863939_1" function="internal">
        <lane id=":10910863939_1_0" index="0" disallow="tram rail_urban rail rail_electric rail_fast ship" speed="8.33" length="0.30" shape="3755.69,5418.99 3755.93,5418.81"/>
    </edge>
    <edge id=":10910863941_0" function="internal">
        <lane id=":10910863941_0_0" index="0" disallow="tram rail_urban rail rail_electric rail_fast ship" speed="8.33" length="0.30" shape="3751.61,5426.01 3751.37,5426.18"/>
    </edge>
    <edge id=":10910863941_1" function="internal">
        <lane id=":10910863941_1_0" index="0" disallow="tram rail_urban rail rail_electric rail_fast ship" speed="8.33" length="0.30" shape="3749.46,5423.62 3749.70,5423.44"/>
    </edge>
    <edge id=":10910863945_0" function="internal">
        <lane id=":10910863945_0_0" index="0" disallow="tram rail_urban rail rail_electric rail_fast ship" speed="8.33" length="0.30" shape="3755.73,5350.40 3755.50,5350.60"/>
    </edge>
    <edge id=":10910863945_1" function="internal">
        <lane id=":10910863945_1_0" index="0" disallow="tram rail_urban rail rail_electric rail_fast ship" speed="8.33" length="0.30" shape="3753.42,5348.16 3753.65,5347.97"/>
    </edge>
    <edge id=":10910863948_0" function="internal">
        <lane id=":10910863948_0_0" index="0" disallow="tram rail_urban rail rail_electric rail_fast ship" speed="8.33" length="0.10" shape="3728.57,5373.58 3728.57,5373.58"/>
    </edge>
    <edge id=":10910863948_1" function="internal">
        <lane id=":10910863948_1_0" index="0" disallow="tram rail_urban rail rail_electric rail_fast ship" speed="8.33" length="0.10" shape="3726.49,5371.15 3726.49,5371.15"/>
    </edge>
    <edge id=":10910863949_0" function="internal">
        <lane id=":10910863949_0_0" index="0" disallow="tram rail_urban rail rail_electric rail_fast ship" speed="8.33" length="0.30" shape="3731.88,5370.76 3731.65,5370.95"/>
    </edge>
    <edge id=":10910863949_1" function="internal">
        <lane id=":10910863949_1_0" index="0" disallow="tram rail_urban rail rail_electric rail_fast ship" speed="8.33" length="0.30" shape="3729.58,5368.52 3729.80,5368.33"/>
    </edge>
    <edge id=":10910863952_0" function="internal">
        <lane id=":10910863952_0_0" index="0" disallow="tram rail_urban rail rail_electric rail_fast ship" speed="8.33" length="0.30" shape="3733.86,5369.06 3733.64,5369.25"/>
    </edge>
    <edge id=":10910863952_1" function="internal">
        <lane id=":10910863952_1_0" index="0" disallow="tram rail_urban rail rail_electric rail_fast ship" speed="8.33" length="0.30" shape="3731.56,5366.82 3731.79,5366.63"/>
    </edge>
    <edge id=":10910863955_0" function="internal">
        <lane id=":10910863955_0_0" index="0" disallow="tram rail_urban rail rail_electric rail_fast ship" speed="13.89" length="0.10" shape="3794.19,5273.84 3794.19,5273.84"/>
    </edge>
    <edge id=":10910863955_1" function="internal">
        <lane id=":10910863955_1_0" index="0" disallow="tram rail_urban rail rail_electric rail_fast ship" speed="13.89" length="0.10" shape="3796.61,5271.75 3796.61,5271.75"/>
    </edge>
    <edge id=":10910863956_0" function="internal">
        <lane id=":10910863956_0_0" index="0" disallow="tram rail_urban rail rail_electric rail_fast ship" speed="13.89" length="1.33" shape="3776.13,5252.71 3776.97,5253.74"/>
    </edge>
    <edge id=":10910863956_1" function="internal">
        <lane id=":10910863956_1_0" index="0" disallow="tram rail_urban rail rail_electric rail_fast ship" speed="13.89" length="1.32" shape="3779.44,5251.72 3778.61,5250.69"/>
    </edge>
    <edge id=":10910863960_0" function="internal">
        <lane id=":10910863960_0_0" index="0" disallow="tram rail_urban rail rail_electric rail_fast ship" speed="13.89" length="0.10" shape="3757.32,5278.50 3757.32,5278.50"/>
    </edge>
    <edge id=":10910863960_1" function="internal">
        <lane id=":10910863960_1_0" index="0" disallow="tram rail_urban rail rail_electric rail_fast ship" speed="13.89" length="0.10" shape="3755.21,5276.10 3755.21,5276.10"/>
    </edge>
    <edge id=":10910863963_0" function="internal">
        <lane id=":10910863963_0_0" index="0" disallow="tram rail_urban rail rail_electric rail_fast ship" speed="13.89" length="0.10" shape="3731.98,5300.52 3731.98,5300.52"/>
    </edge>
    <edge id=":10910863963_1" function="internal">
        <lane id=":10910863963_1_0" index="0" disallow="tram rail_urban rail rail_electric rail_fast ship" speed="13.89" length="0.10" shape="3729.89,5298.10 3729.89,5298.10"/>
    </edge>
    <edge id=":10910863966_0" function="internal">
        <lane id=":10910863966_0_0" index="0" disallow="tram rail_urban rail rail_electric rail_fast ship" speed="13.89" length="0.10" shape="3705.04,5323.85 3705.04,5323.85"/>
    </edge>
    <edge id=":10910863966_1" function="internal">
        <lane id=":10910863966_1_0" index="0" disallow="tram rail_urban rail rail_electric rail_fast ship" speed="13.89" length="0.10" shape="3702.94,5321.44 3702.94,5321.44"/>
    </edge>
    <edge id=":10910863968_0" function="internal">
        <lane id=":10910863968_0_0" index="0" disallow="tram rail_urban rail rail_electric rail_fast ship" speed="13.89" length="0.10" shape="3683.69,5342.34 3683.69,5342.34"/>
    </edge>
    <edge id=":10910863968_1" function="internal">
        <lane id=":10910863968_1_0" index="0" disallow="tram rail_urban rail rail_electric rail_fast ship" speed="13.89" length="0.10" shape="3681.60,5339.92 3681.60,5339.92"/>
    </edge>
    <edge id=":10910863977_0" function="internal">
        <lane id=":10910863977_0_0" index="0" disallow="tram rail_urban rail rail_electric rail_fast ship" speed="13.89" length="2.41" shape="3648.71,5372.69 3650.51,5371.09"/>
    </edge>
    <edge id=":10910863977_1" function="internal">
        <lane id=":10910863977_1_0" index="0" disallow="tram rail_urban rail rail_electric rail_fast ship" speed="13.89" length="2.41" shape="3648.40,5368.69 3646.59,5370.29"/>
    </edge>
    <edge id=":10910863979_0" function="internal">
        <lane id=":10910863979_0_0" index="0" disallow="tram rail_urban rail rail_electric rail_fast ship" speed="13.89" length="1.38" shape="3655.88,5366.41 3656.92,5365.51"/>
    </edge>
    <edge id=":10910863979_1" function="internal">
        <lane id=":10910863979_1_0" index="0" disallow="tram rail_urban rail rail_electric rail_fast ship" speed="13.89" length="1.38" shape="3654.83,5363.09 3653.79,5363.99"/>
    </edge>
    <edge id=":10910863980_0" function="internal">
        <lane id=":10910863980_0_0" index="0" disallow="tram rail_urban rail rail_electric rail_fast ship" speed="8.33" length="0.30" shape="3685.49,5410.46 3685.27,5410.67"/>
    </edge>
    <edge id=":10910863980_1" function="internal">
        <lane id=":10910863980_1_0" index="0" disallow="tram rail_urban rail rail_electric rail_fast ship" speed="8.33" length="0.30" shape="3683.11,5408.30 3683.33,5408.10"/>
    </edge>
    <edge id=":10910863984_0" function="internal">
        <lane id=":10910863984_0_0" index="0" disallow="tram rail_urban rail rail_electric rail_fast ship" speed="8.33" length="0.30" shape="3664.21,5429.92 3663.99,5430.12"/>
    </edge>
    <edge id=":10910863984_1" function="internal">
        <lane id=":10910863984_1_0" index="0" disallow="tram rail_urban rail rail_electric rail_fast ship" speed="8.33" length="0.30" shape="3661.83,5427.76 3662.05,5427.55"/>
    </edge>
    <edge id=":10910863986_0" function="internal">
        <lane id=":10910863986_0_0" index="0" disallow="tram rail_urban rail rail_electric rail_fast ship" speed="8.33" length="0.30" shape="3660.15,5433.63 3659.93,5433.83"/>
    </edge>
    <edge id=":10910863986_1" function="internal">
        <lane id=":10910863986_1_0" index="0" disallow="tram rail_urban rail rail_electric rail_fast ship" speed="8.33" length="0.30" shape="3657.77,5431.47 3657.99,5431.27"/>
    </edge>
    <edge id=":10911414968_0" function="internal">
        <lane id=":10911414968_0_0" index="0" disallow="tram rail_urban rail rail_electric rail_fast ship" speed="13.89" length="0.30" shape="3694.66,4937.17 3694.46,4936.95"/>
    </edge>
    <edge id=":10911414968_1" function="internal">
        <lane id=":10911414968_1_0" index="0" disallow="tram rail_urban rail rail_electric rail_fast ship" speed="13.89" length="0.30" shape="3696.84,4934.81 3697.04,4935.03"/>
    </edge>
    <edge id=":10911414971_0" function="internal">