<?xml version="1.0" encoding="UTF-8"?>

<!-- generated on 12/16/25 14:10:55 by Eclipse SUMO polyconvert Version 1.5.0
<configuration xmlns:xsi="http://www.w3.org/2001/XMLSchema-instance" xsi:noNamespaceSchemaLocation="http://sumo.dlr.de/xsd/polyconvertConfiguration.xsd">

    <input>
        <net-file value="karlshuld.net.xml"/>
        <osm-files value="karlshuld_raw.osm"/>
    </input>

    <output>
        <output-file value="karlshuld.poly.xml"/>
    </output>

    <processing>
        <poi-layer-offset value="5"/>
    </processing>

</configuration>
-->

<additional xmlns:xsi="http://www.w3.org/2001/XMLSchema-instance" xsi:noNamespaceSchemaLocation="http://sumo.dlr.de/xsd/additional_file.xsd">
    <location netOffset="-664753.16,-5389857.68" convBoundary="0.00,0.00,8552.05,8056.35" origBoundary="11.237792,48.639544,11.355007,48.710979" projParameter="+proj=utm +zone=32 +ellps=WGS84 +datum=WGS84 +units=m +no_defs"/>

    <poly id="1002103541" type="building" color="255,230,230" fill="1" layer="-1.00" shape="5303.763940,2813.859181 5299.369401,2823.916532 5306.025028,2826.799191 5310.411878,2816.752737 5303.763940,2813.859181"/>
    <poly id="1002103542" type="building" color="255,230,230" fill="1" layer="-1.00" shape="5295.776551,2807.743345 5262.455246,2792.071779 5256.605265,2804.443577 5264.401677,2808.106091 5263.212530,2810.628820 5288.729989,2822.637611 5295.776551,2807.743345"/>
    <poly id="1002103543" type="building" color="255,230,230" fill="1" layer="-1.00" shape="5239.660781,2806.956592 5246.960959,2810.214687 5251.157173,2800.863291 5243.849286,2797.616083 5239.660781,2806.956592"/>
    <poly id="1002103544" type="building" color="255,230,230" fill="1" layer="-1.00" shape="5241.202286,2827.361853 5231.700880,2823.058139 5228.432410,2830.246021 5237.934142,2834.538615 5241.202286,2827.361853"/>
    <poly id="1002103545" type="building" color="255,230,230" fill="1" layer="-1.00" shape="5251.782804,2840.809560 5256.867172,2829.627196 5243.018150,2823.367354 5241.202286,2827.361853 5237.934142,2834.538615 5251.782804,2840.809560"/>
    <poly id="1002103546" type="building" color="255,230,230" fill="1" layer="-1.00" shape="5213.660648,2815.759261 5223.826315,2820.516921 5228.639078,2810.271930 5218.473059,2805.525376 5216.173143,2810.417475 5213.660648,2815.759261"/>
    <poly id="1002103547" type="building" color="255,230,230" fill="1" layer="-1.00" shape="5208.424858,2813.442558 5213.660648,2815.759261 5216.173143,2810.417475 5210.821229,2808.041631 5208.424858,2813.442558"/>
    <poly id="1002103548" type="building" color="255,230,230" fill="1" layer="-1.00" shape="5198.085601,2810.036913 5195.112317,2808.689815 5192.648020,2807.569495 5190.247331,2812.870174 5195.677882,2815.326253 5198.085601,2810.036913"/>
    <poly id="1002103549" type="building" color="255,230,230" fill="1" layer="-1.00" shape="5207.989976,2814.419513 5208.424858,2813.442558 5210.821229,2808.041631 5213.375285,2802.300604 5200.496592,2796.604238 5195.112317,2808.689815 5198.085601,2810.036913 5207.989976,2814.419513"/>
    <poly id="1002103550" type="building" color="255,230,230" fill="1" layer="-1.00" shape="5182.272040,2801.236917 5187.137249,2791.204854 5173.830912,2784.783616 5168.965723,2794.815690 5182.272040,2801.236917"/>
    <poly id="1002103551" type="building" color="255,230,230" fill="1" layer="-1.00" shape="5179.803167,2759.354798 5191.187015,2765.016998 5195.046572,2757.290738 5183.669738,2751.639868 5179.803167,2759.354798"/>
    <poly id="1002103552" type="building" color="255,230,230" fill="1" layer="-1.00" shape="5172.437555,2765.562112 5176.830443,2756.283367 5165.873526,2751.123612 5161.473290,2760.402143 5172.437555,2765.562112"/>
    <poly id="1002103553" type="building" color="255,230,230" fill="1" layer="-1.00" shape="5161.473290,2760.402143 5150.468406,2783.620601 5165.769927,2790.836397 5176.775200,2767.606852 5172.437555,2765.562112 5161.473290,2760.402143"/>
    <poly id="1002103554" type="building" color="255,230,230" fill="1" layer="-1.00" shape="5186.629804,2862.032929 5185.106288,2865.135173 5183.508735,2864.352584 5181.728057,2868.403789 5189.182046,2872.178213 5192.770022,2865.144604 5186.629804,2862.032929"/>
    <poly id="1002103555" type="building" color="255,230,230" fill="1" layer="-1.00" shape="5190.345039,2854.446924 5177.737928,2848.302702 5172.498860,2859.002077 5183.508735,2864.352584 5185.106288,2865.135173 5186.629804,2862.032929 5190.345039,2854.446924"/>
    <poly id="1002103556" type="building" color="255,230,230" fill="1" layer="-1.00" shape="5228.862727,2859.851322 5222.049206,2856.585728 5220.570852,2859.655956 5218.776534,2858.800651 5214.939386,2866.761196 5217.728572,2868.102734 5217.075768,2869.462465 5218.710127,2870.246178 5221.092695,2865.300959 5225.269279,2867.307492 5228.862727,2859.851322"/>
    <poly id="1002103557" type="building" color="255,230,230" fill="1" layer="-1.00" shape="5204.339151,2861.512023 5198.625700,2873.031387 5212.022124,2879.633423 5217.075768,2869.462465 5217.728572,2868.102734 5214.939386,2866.761196 5204.339151,2861.512023"/>
    <poly id="1002103558" type="building" color="255,230,230" fill="1" layer="-1.00" shape="5240.710285,2875.017228 5235.165571,2887.776532 5239.923096,2889.822913 5245.460457,2877.063390 5240.710285,2875.017228"/>
    <poly id="1002103559" type="building" color="255,230,230" fill="1" layer="-1.00" shape="5238.925494,2875.308071 5243.521192,2864.199903 5232.880008,2859.817179 5228.276965,2870.925132 5238.925494,2875.308071"/>
    <poly id="1002103560" type="building" color="255,230,230" fill="1" layer="-1.00" shape="5253.592442,2890.815230 5247.104900,2887.737470 5244.620244,2886.560884 5241.913593,2892.230528 5250.885783,2896.484870 5253.592442,2890.815230"/>
    <poly id="1002103561" type="building" color="255,230,230" fill="1" layer="-1.00" shape="5257.071939,2882.499009 5250.427382,2879.739114 5247.104900,2887.737470 5253.592442,2890.815230 5257.071939,2882.499009"/>
    <poly id="1002103562" type="building" color="255,230,230" fill="1" layer="-1.00" shape="5258.935199,2883.267415 5263.431815,2872.512259 5254.924319,2868.972837 5250.427382,2879.739114 5257.071939,2882.499009 5258.935199,2883.267415"/>
    <poly id="1002103563" type="building" color="255,230,230" fill="1" layer="-1.00" shape="5272.932684,2887.295692 5287.335087,2893.283127 5290.529391,2885.625784 5284.881733,2883.285407 5285.509478,2881.780301 5276.754377,2878.144348 5272.932684,2887.295692"/>
    <poly id="1002103564" type="building" color="255,230,230" fill="1" layer="-1.00" shape="5307.568928,2920.117312 5300.907400,2917.189967 5295.557790,2929.343255 5302.212280,2932.259257 5307.568928,2920.117312"/>
    <poly id="1002103565" type="building" color="255,230,230" fill="1" layer="-1.00" shape="5319.434863,2897.681708 5304.700265,2891.228006 5294.500185,2914.381580 5300.907400,2917.189967 5307.568928,2920.117312 5309.227368,2920.835034 5319.434863,2897.681708"/>
    <poly id="1002103566" type="building" color="255,230,230" fill="1" layer="-1.00" shape="5319.947250,2927.723403 5321.498009,2924.210395 5318.254423,2922.788290 5316.704002,2926.290185 5319.947250,2927.723403"/>
    <poly id="1002103567" type="building" color="255,230,230" fill="1" layer="-1.00" shape="5319.464346,2937.098216 5309.837730,2932.556940 5305.406235,2941.890044 5315.025475,2946.431090 5316.072001,2944.237800 5319.464346,2937.098216"/>
    <poly id="1002103568" type="building" color="255,230,230" fill="1" layer="-1.00" shape="5324.463034,2939.452350 5319.464346,2937.098216 5316.072001,2944.237800 5321.085408,2946.592377 5324.463034,2939.452350"/>
    <poly id="1002103569" type="building" color="255,230,230" fill="1" layer="-1.00" shape="5319.920029,2949.060189 5336.645738,2956.920368 5341.661486,2946.303367 5324.935750,2938.443174 5324.463034,2939.452350 5321.085408,2946.592377 5319.920029,2949.060189"/>
    <poly id="1002103570" type="building" color="255,230,230" fill="1" layer="-1.00" shape="5361.035846,2940.437812 5365.312153,2931.122295 5358.348513,2927.952103 5360.802208,2922.608594 5351.229445,2918.235753 5344.506837,2932.895017 5361.035846,2940.437812"/>
    <poly id="1002103571" type="building" color="255,230,230" fill="1" layer="-1.00" shape="5365.004324,2948.823861 5367.246146,2943.663060 5364.671168,2942.550431 5362.429348,2947.711233 5365.004324,2948.823861"/>
    <poly id="1002103572" type="building" color="255,230,230" fill="1" layer="-1.00" shape="5375.566232,2953.382446 5365.004324,2948.823861 5361.304452,2957.355845 5371.858984,2961.914201 5375.566232,2953.382446"/>
    <poly id="1002103573" type="building" color="255,230,230" fill="1" layer="-1.00" shape="5373.589725,2935.678421 5367.792252,2933.177668 5363.871068,2942.203569 5364.671168,2942.550431 5367.246146,2943.663060 5369.668196,2944.715432 5373.589725,2935.678421"/>
    <poly id="1002103574" type="building" color="255,230,230" fill="1" layer="-1.00" shape="5388.552622,2944.319719 5375.795818,2937.291624 5372.303494,2943.593779 5385.052924,2950.621643 5388.552622,2944.319719"/>
    <poly id="1002103575" type="building" color="255,230,230" fill="1" layer="-1.00" shape="5394.295383,2959.812760 5405.118496,2964.991190 5412.424643,2949.804552 5401.601506,2944.626108 5394.295383,2959.812760"/>
    <poly id="1002103576" type="building" color="255,230,230" fill="1" layer="-1.00" shape="5414.615555,2902.067091 5409.458158,2912.245871 5420.302046,2917.714203 5425.459459,2907.535433 5414.615555,2902.067091"/>
    <poly id="1005020597" type="building" color="255,230,230" fill="1" layer="-1.00" shape="4093.786710,2950.471891 4096.915431,2934.891129 4082.895347,2932.088864 4079.766665,2947.669633 4093.786710,2950.471891"/>
    <poly id="1005020598" type="building" color="255,230,230" fill="1" layer="-1.00" shape="3862.557633,2772.447081 3866.399044,2774.342388 3872.289132,2762.493375 3868.447715,2760.598064 3862.557633,2772.447081"/>
    <poly id="1005020599" type="building" color="255,230,230" fill="1" layer="-1.00" shape="3849.490584,2774.457692 3835.545780,2765.695457 3831.850280,2771.458391 3830.665745,2773.358540 3844.631957,2782.143656 3849.490584,2774.457692"/>
    <poly id="1005020600" type="building" color="255,230,230" fill="1" layer="-1.00" shape="3860.987751,2788.653232 3866.174659,2792.613649 3871.451701,2785.719000 3866.257093,2781.769473 3860.987751,2788.653232"/>
    <poly id="1005020601" type="building" color="255,230,230" fill="1" layer="-1.00" shape="3869.441079,2790.097409 3879.686019,2797.892021 3885.622623,2790.138334 3875.378009,2782.332597 3869.441079,2790.097409"/>
    <poly id="1005020602" type="building" color="255,230,230" fill="1" layer="-1.00" shape="3898.924197,2884.108287 3907.067927,2896.100644 3915.446946,2890.445059 3910.662196,2883.403981 3907.303224,2878.452690 3898.924197,2884.108287"/>
    <poly id="1005020603" type="building" color="255,230,230" fill="1" layer="-1.00" shape="3805.655346,2826.117888 3809.779148,2820.323297 3805.262288,2817.117280 3801.131127,2822.911654 3805.655346,2826.117888"/>
    <poly id="1005020604" type="building" color="255,230,230" fill="1" layer="-1.00" shape="3815.671770,2823.359245 3824.033827,2811.395272 3815.710978,2805.605296 3807.341236,2817.580174 3815.671770,2823.359245"/>
    <poly id="1005020605" type="building" color="255,230,230" fill="1" layer="-1.00" shape="3797.912246,2832.193214 3803.464561,2824.961902 3795.972345,2819.241386 3790.420369,2826.461590 3797.912246,2832.193214"/>
    <poly id="1005020606" type="building" color="255,230,230" fill="1" layer="-1.00" shape="3767.178016,2793.313118 3778.379771,2786.418193 3775.118313,2781.158424 3772.630374,2777.134469 3761.428942,2784.018292 3767.178016,2793.313118"/>
    <poly id="1005020607" type="building" color="255,230,230" fill="1" layer="-1.00" shape="3723.710988,2768.869375 3713.367076,2761.172216 3708.423171,2767.776628 3718.767077,2775.473779 3723.710988,2768.869375"/>
    <poly id="1005020608" type="building" color="255,230,230" fill="1" layer="-1.00" shape="3706.917097,2751.900924 3701.222914,2746.913093 3697.546274,2743.699000 3689.734238,2752.564718 3699.112418,2760.766850 3706.917097,2751.900924"/>
    <poly id="1005020609" type="building" color="255,230,230" fill="1" layer="-1.00" shape="3541.492605,2659.444871 3546.717576,2653.293731 3541.334123,2648.749252 3536.109155,2654.900397 3541.492605,2659.444871"/>
    <poly id="1005020610" type="building" color="255,230,230" fill="1" layer="-1.00" shape="3528.763672,2520.315777 3532.379084,2512.792547 3526.988069,2510.216942 3523.372663,2517.740175 3528.763672,2520.315777"/>
    <poly id="1005020611" type="building" color="255,230,230" fill="1" layer="-1.00" shape="3511.909981,2515.383150 3521.515203,2519.965089 3523.880639,2515.052087 3514.275743,2510.459029 3511.909981,2515.383150"/>
    <poly id="1017629653" type="building" color="255,230,230" fill="1" layer="-1.00" shape="3712.850258,6878.210268 3717.170236,6870.697271 3721.181020,6872.987097 3725.905291,6864.763136 3717.203149,6859.795917 3712.929978,6867.221322 3708.210198,6864.509712 3703.431782,6872.821059 3712.850258,6878.210268"/>
    <poly id="1017629654" type="building" color="255,230,230" fill="1" layer="-1.00" shape="3516.169224,6715.011935 3520.930795,6707.256174 3512.976023,6702.400718 3508.214459,6710.156485 3516.169224,6715.011935"/>
    <poly id="1017629655" type="building" color="255,230,230" fill="1" layer="-1.00" shape="3536.456555,6723.129882 3544.428541,6709.985936 3535.857415,6704.811581 3532.417635,6710.482150 3529.039751,6708.445080 3524.499871,6715.929365 3536.456555,6723.129882"/>
    <poly id="1017629667" type="building" color="255,230,230" fill="1" layer="-1.00" shape="3168.718861,5583.589167 3173.034220,5579.924782 3178.179040,5585.952640 3184.723828,5580.397037 3178.639572,5573.273078 3175.117846,5576.260352 3169.261074,5569.410207 3161.922651,5575.642936 3168.718861,5583.589167"/>
    <poly id="1017629668" type="building" color="255,230,230" fill="1" layer="-1.00" shape="5668.498179,4182.608364 5676.861342,4171.414671 5679.858306,4173.652790 5687.008209,4164.079895 5680.286017,4159.080914 5673.520360,4168.131484 5668.130893,4164.129730 5659.383501,4175.845771 5668.498179,4182.608364"/>
    <poly id="1026363223" type="building" color="255,230,230" fill="1" layer="-1.00" shape="2541.574328,4337.246202 2547.916686,4331.583671 2543.046492,4326.165417 2536.704465,4331.816838 2541.574328,4337.246202"/>
    <poly id="1026363224" type="building" color="255,230,230" fill="1" layer="-1.00" shape="2551.897868,4332.225198 2562.017172,4323.182120 2555.507073,4315.935024 2545.387768,4324.978114 2551.897868,4332.225198"/>
    <poly id="1026363225" type="building" color="255,230,230" fill="1" layer="-1.00" shape="2845.180009,4550.330596 2856.275674,4532.773425 2869.718372,4541.218049 2856.457923,4562.192577 2848.464221,4555.557156 2849.443562,4554.585179 2845.180009,4550.330596"/>
    <poly id="1026363226" type="building" color="255,230,230" fill="1" layer="-1.00" shape="2842.270317,4571.046896 2854.302972,4583.042661 2840.613368,4596.684351 2828.588409,4584.677720 2842.270317,4571.046896"/>
    <poly id="1026363227" type="building" color="255,230,230" fill="1" layer="-1.00" shape="2688.269771,4923.575040 2694.899508,4917.153667 2686.393458,4908.445100 2683.169393,4911.575065 2685.549219,4914.026755 2682.158268,4917.318611 2688.269771,4923.575040"/>
    <poly id="1026363228" type="building" color="255,230,230" fill="1" layer="-1.00" shape="2792.543472,4987.839765 2799.689105,4981.411666 2793.278519,4974.322947 2786.132886,4980.751054 2792.543472,4987.839765"/>
    <poly id="1026816680" type="building" color="255,230,230" fill="1" layer="-1.00" shape="782.697248,3612.923267 776.116133,3609.981478 771.141419,3621.026015 777.722522,3623.967799 782.697248,3612.923267"/>
    <poly id="1031602409" type="building" color="255,230,230" fill="1" layer="-1.00" shape="3547.797344,4578.620581 3558.389516,4589.473383 3544.618472,4602.821762 3552.279929,4610.683107 3565.003935,4598.349074 3575.366845,4608.983667 3562.748878,4621.220733 3577.214454,4636.050043 3590.074950,4623.586663 3600.288202,4634.049946 3582.761544,4651.034626 3572.912994,4640.938305 3562.920699,4650.617547 3548.326645,4635.650924 3560.246081,4624.104865 3550.176276,4613.768334 3535.047513,4628.422115 3526.742642,4619.907389 3538.055585,4608.932712 3527.592232,4598.206182 3547.797344,4578.620581"/>
    <poly id="1031602410" type="building" color="255,230,230" fill="1" layer="-1.00" shape="3797.983811,4294.503132 3774.499688,4317.972146 3800.015820,4343.368628 3823.499958,4319.899719 3797.983811,4294.503132"/>
    <poly id="1031602411" type="building" color="255,230,230" fill="1" layer="-1.00" shape="4058.663962,4417.790610 4052.377301,4423.753559 4058.519060,4430.201556 4064.805721,4424.238614 4058.663962,4417.790610"/>
    <poly id="1031602412" type="building" color="255,230,230" fill="1" layer="-1.00" shape="4034.310378,4385.385820 4028.878176,4379.593305 4019.062934,4388.732006 4027.735849,4397.981657 4035.679240,4390.577777 4032.453248,4387.121068 4034.310378,4385.385820"/>
    <poly id="1031602413" type="building" color="255,230,230" fill="1" layer="-1.00" shape="4039.252180,4394.256292 4031.346593,4401.627931 4038.527596,4409.286386 4046.425822,4401.914537 4039.252180,4394.256292"/>
    <poly id="1031602414" type="building" color="255,230,230" fill="1" layer="-1.00" shape="4399.316957,4113.502473 4403.873456,4119.747328 4411.601530,4114.139673 4407.045035,4107.894812 4399.316957,4113.502473"/>
    <poly id="1031602415" type="building" color="255,230,230" fill="1" layer="-1.00" shape="4374.916779,4136.207302 4380.468338,4142.192873 4389.645524,4133.725267 4384.093964,4127.739687 4374.916779,4136.207302"/>
    <poly id="1031602416" type="building" color="255,230,230" fill="1" layer="-1.00" shape="4386.797361,4128.978131 4400.383484,4117.472811 4391.709371,4107.288057 4378.122908,4118.804512 4386.797361,4128.978131"/>
    <poly id="1031602417" type="building" color="255,230,230" fill="1" layer="-1.00" shape="4523.289098,3796.654479 4531.668699,3787.540026 4524.950153,3781.396757 4516.570555,3790.511219 4523.289098,3796.654479"/>
    <poly id="1031602418" type="building" color="255,230,230" fill="1" layer="-1.00" shape="6048.215499,4459.871298 6050.731954,4456.343367 6054.013646,4458.657118 6060.317194,4449.793174 6050.256023,4442.689589 6043.952485,4451.553544 6045.120864,4452.378977 6038.332328,4461.929055 6043.943413,4465.893439 6044.905746,4464.532094 6054.079815,4471.007922 6057.389573,4466.347132 6048.215499,4459.871298"/>
    <poly id="1031602419" type="building" color="255,230,230" fill="1" layer="-1.00" shape="5324.602730,3821.730812 5332.176371,3812.025694 5327.489921,3808.390475 5319.916284,3818.095598 5324.602730,3821.730812"/>
    <poly id="1031602420" type="building" color="255,230,230" fill="1" layer="-1.00" shape="5181.078982,3847.366074 5189.090478,3838.764277 5181.013067,3831.288554 5173.001910,3839.879248 5181.078982,3847.366074"/>
    <poly id="1031602421" type="building" color="255,230,230" fill="1" layer="-1.00" shape="5041.840299,3586.668001 5036.980596,3594.352964 5044.421163,3599.027959 5050.186549,3589.901907 5045.349072,3586.863120 5049.388462,3580.477218 5038.708378,3573.768509 5033.763323,3581.595517 5041.840299,3586.668001"/>
    <poly id="1031602422" type="building" color="255,230,230" fill="1" layer="-1.00" shape="4975.862716,3265.966815 4968.107915,3262.650803 4964.762624,3270.448360 4972.517415,3273.764367 4970.527779,3278.398931 4979.919508,3282.409675 4983.709006,3273.568689 4974.324626,3269.558161 4975.862716,3265.966815"/>
    <poly id="1031602423" type="building" color="255,230,230" fill="1" layer="-1.00" shape="4993.079197,3259.767840 4999.986830,3243.333827 4989.544660,3238.968674 4985.487660,3248.613687 4977.454091,3245.255862 4974.603494,3252.044878 4993.079197,3259.767840"/>
    <poly id="1031602427" type="building" color="255,230,230" fill="1" layer="-1.00" shape="5032.590082,2885.930989 5046.815381,2889.008842 5048.433750,2881.548473 5034.208432,2878.470616 5032.590082,2885.930989"/>
    <poly id="1031602428" type="building" color="255,230,230" fill="1" layer="-1.00" shape="5145.562475,2686.362881 5165.336176,2686.560648 5165.439788,2676.072997 5145.666386,2675.864116 5145.562475,2686.362881"/>
    <poly id="1032791573" type="building" color="255,230,230" fill="1" layer="-1.00" shape="7616.167727,3422.865660 7611.956604,3432.582163 7623.512606,3437.565020 7627.723747,3427.848525 7616.167727,3422.865660"/>
    <poly id="1034071965" type="building" color="255,230,230" fill="1" layer="-1.00" shape="3451.424821,5771.400171 3458.535203,5764.916232 3452.757977,5758.624385 3445.647595,5765.108331 3451.424821,5771.400171"/>
    <poly id="1034071966" type="building" color="255,230,230" fill="1" layer="-1.00" shape="3370.954653,5720.929091 3378.728853,5713.675085 3374.838928,5709.531344 3367.064728,5716.785354 3370.954653,5720.929091"/>
    <poly id="1034071968" type="building" color="255,230,230" fill="1" layer="-1.00" shape="3357.881973,5245.465059 3365.495473,5255.149217 3373.467759,5248.924590 3365.854264,5239.240422 3357.881973,5245.465059"/>
    <poly id="1034071969" type="building" color="255,230,230" fill="1" layer="-1.00" shape="3087.416554,5324.630965 3098.396546,5314.123914 3087.652087,5302.967015 3076.672096,5313.474087 3087.416554,5324.630965"/>
    <poly id="1034071970" type="building" color="255,230,230" fill="1" layer="-1.00" shape="3057.082045,5351.301898 3068.395902,5339.725678 3059.756348,5331.335100 3048.442494,5342.911336 3057.082045,5351.301898"/>
    <poly id="1034071971" type="building" color="255,230,230" fill="1" layer="-1.00" shape="3356.809362,5139.647516 3351.389010,5143.545672 3356.135411,5150.095730 3361.548401,5146.197358 3356.809362,5139.647516"/>
    <poly id="1034071972" type="building" color="255,230,230" fill="1" layer="-1.00" shape="3364.021179,5146.271442 3373.031128,5138.854173 3365.012696,5129.157883 3355.995384,5136.574945 3364.021179,5146.271442"/>
    <poly id="1034071974" type="building" color="255,230,230" fill="1" layer="-1.00" shape="3843.700864,5388.977811 3837.368235,5394.060699 3843.028083,5401.072526 3849.360710,5395.989645 3843.700864,5388.977811"/>
    <poly id="1034071975" type="building" color="255,230,230" fill="1" layer="-1.00" shape="3849.360710,5395.989645 3858.199046,5388.901724 3850.422988,5379.267582 3841.592008,5386.355736 3843.700864,5388.977811 3849.360710,5395.989645"/>
    <poly id="1034071977" type="building" color="255,230,230" fill="1" layer="-1.00" shape="3220.399800,4677.133979 3228.327982,4669.695202 3221.623120,4662.597181 3213.694605,4670.047082 3220.399800,4677.133979"/>
    <poly id="1034071980" type="building" color="255,230,230" fill="1" layer="-1.00" shape="2358.729198,4321.509040 2362.680243,4311.781366 2357.147796,4309.547463 2353.203788,4319.286475 2358.729198,4321.509040"/>
    <poly id="1034071981" type="building" color="255,230,230" fill="1" layer="-1.00" shape="2251.102720,4156.653676 2255.702222,4160.784266 2272.668695,4141.976738 2268.061827,4137.845914 2251.102720,4156.653676"/>
    <poly id="1034071982" type="building" color="255,230,230" fill="1" layer="-1.00" shape="2243.914966,4152.601830 2239.077246,4147.563068 2221.689573,4164.188860 2226.527623,4169.216492 2243.914966,4152.601830"/>
    <poly id="1034071983" type="building" color="255,230,230" fill="1" layer="-1.00" shape="2183.168321,4121.514875 2187.150188,4122.634513 2190.573908,4110.566001 2186.592032,4109.446360 2183.168321,4121.514875"/>
    <poly id="1034071984" type="building" color="255,230,230" fill="1" layer="-1.00" shape="2184.006167,4133.721255 2187.150188,4122.634513 2183.168321,4121.514875 2180.830394,4120.855741 2177.679024,4131.942267 2184.006167,4133.721255"/>
    <poly id="1034072003" type="building" color="255,230,230" fill="1" layer="-1.00" shape="2226.600740,5643.968085 2217.280570,5660.900551 2248.479598,5677.982144 2257.800171,5661.038614 2226.600740,5643.968085"/>
    <poly id="1034072004" type="building" color="255,230,230" fill="1" layer="-1.00" shape="2284.214565,5669.612238 2270.040075,5662.315204 2258.091415,5685.399169 2272.273216,5692.696393 2284.214565,5669.612238"/>
    <poly id="1034072005" type="building" color="255,230,230" fill="1" layer="-1.00" shape="2298.234429,5679.874991 2304.255393,5670.108817 2294.396524,5664.063815 2288.375241,5673.841114 2298.234429,5679.874991"/>
    <poly id="1034072006" type="building" color="255,230,230" fill="1" layer="-1.00" shape="2558.832409,5667.026326 2549.404440,5683.587963 2554.612172,5686.535558 2564.040153,5669.973929 2558.832409,5667.026326"/>
    <poly id="1034072007" type="building" color="255,230,230" fill="1" layer="-1.00" shape="2454.327345,5629.179555 2464.969262,5610.184272 2458.021133,5606.317173 2447.379565,5625.301354 2454.327345,5629.179555"/>
    <poly id="1034072008" type="building" color="255,230,230" fill="1" layer="-1.00" shape="2384.875448,5652.808148 2388.736320,5645.836748 2383.135069,5642.744095 2379.266513,5649.726394 2384.875448,5652.808148"/>
    <poly id="1034072009" type="building" color="255,230,230" fill="1" layer="-1.00" shape="2398.616726,5649.179264 2407.192212,5633.281726 2396.375813,5627.486132 2387.807710,5643.383904 2398.616726,5649.179264"/>
    <poly id="1034072010" type="building" color="255,230,230" fill="1" layer="-1.00" shape="2425.146088,5689.484569 2411.639067,5682.040184 2404.983744,5694.056787 2418.491074,5701.490041 2425.146088,5689.484569"/>
    <poly id="1034072011" type="building" color="255,230,230" fill="1" layer="-1.00" shape="2437.247676,5696.141752 2425.146088,5689.484569 2418.491074,5701.490041 2430.592311,5708.158325 2437.247676,5696.141752"/>
    <poly id="1034072012" type="building" color="255,230,230" fill="1" layer="-1.00" shape="2437.925368,5712.203738 2451.080031,5688.466330 2443.739591,5684.420681 2437.247676,5696.141752 2430.592311,5708.158325 2437.925368,5712.203738"/>
    <poly id="1034072013" type="building" color="255,230,230" fill="1" layer="-1.00" shape="2380.282531,5717.483682 2387.311558,5703.798361 2375.790833,5697.915068 2368.761828,5711.600403 2380.282531,5717.483682"/>
    <poly id="1034072014" type="building" color="255,230,230" fill="1" layer="-1.00" shape="2355.081759,5714.663816 2348.852460,5724.746349 2369.415579,5737.373499 2375.644903,5727.290988 2355.081759,5714.663816"/>
    <poly id="1034072015" type="building" color="255,230,230" fill="1" layer="-1.00" shape="2320.305481,5698.264925 2312.430852,5712.403502 2338.182411,5726.653491 2346.057090,5712.514949 2320.305481,5698.264925"/>
    <poly id="1034072016" type="building" color="255,230,230" fill="1" layer="-1.00" shape="2343.835059,5681.032697 2339.251251,5689.528922 2350.147200,5695.371279 2354.723662,5686.874842 2343.835059,5681.032697"/>
    <poly id="1034072017" type="building" color="255,230,230" fill="1" layer="-1.00" shape="2314.324688,5690.110438 2320.473772,5679.257877 2311.629427,5674.266524 2305.472997,5685.118875 2314.324688,5690.110438"/>
    <poly id="1034072018" type="building" color="255,230,230" fill="1" layer="-1.00" shape="2357.926335,5539.534969 2367.160886,5544.538007 2369.817600,5539.666663 2360.583043,5534.663620 2357.926335,5539.534969"/>
    <poly id="1034072019" type="building" color="255,230,230" fill="1" layer="-1.00" shape="2346.703319,5568.158222 2357.198906,5547.389569 2344.013152,5540.767041 2333.517604,5561.535718 2346.703319,5568.158222"/>
    <poly id="1034072020" type="building" color="255,230,230" fill="1" layer="-1.00" shape="2745.488277,5438.420623 2738.528611,5445.054559 2745.329037,5452.143760 2752.288372,5445.520947 2745.488277,5438.420623"/>
    <poly id="1034072021" type="building" color="255,230,230" fill="1" layer="-1.00" shape="3060.912293,5457.691094 3068.622925,5450.835255 3061.602308,5442.993699 3053.891343,5449.860663 3060.912293,5457.691094"/>
    <poly id="1034072022" type="building" color="255,230,230" fill="1" layer="-1.00" shape="3270.306452,5595.296724 3277.422810,5588.612490 3273.160710,5584.101689 3266.044351,5590.785928 3270.306452,5595.296724"/>
    <poly id="1034072023" type="building" color="255,230,230" fill="1" layer="-1.00" shape="3290.655689,5661.253061 3283.722789,5666.240680 3289.557748,5674.302905 3296.490976,5669.304179 3290.655689,5661.253061"/>
    <poly id="1034072024" type="building" color="255,230,230" fill="1" layer="-1.00" shape="3265.585685,5722.433808 3271.049283,5727.892824 3264.474939,5734.437543 3258.603546,5728.576955 3262.125825,5725.078012 3262.526262,5725.479370 3265.585685,5722.433808"/>
    <poly id="1034072025" type="building" color="255,230,230" fill="1" layer="-1.00" shape="3262.526262,5725.479370 3265.585685,5722.433808 3274.331210,5713.729161 3267.823184,5707.237635 3256.018572,5718.976743 3262.125825,5725.078012 3262.526262,5725.479370"/>
    <poly id="1034072027" type="building" color="255,230,230" fill="1" layer="-1.00" shape="3376.654316,5809.197031 3381.061991,5813.756788 3384.929459,5810.045769 3390.344373,5815.648075 3381.289744,5824.343281 3368.441723,5816.337773 3376.654316,5809.197031"/>
    <poly id="1034072028" type="building" color="255,230,230" fill="1" layer="-1.00" shape="3427.494728,5809.986635 3419.673986,5816.338067 3427.389520,5825.780679 3435.217951,5819.418363 3427.494728,5809.986635"/>
    <poly id="1034072029" type="building" color="255,230,230" fill="1" layer="-1.00" shape="3490.840787,5963.795030 3495.599914,5966.451963 3498.191264,5961.823892 3493.431801,5959.178071 3490.840787,5963.795030"/>
    <poly id="1034072030" type="building" color="255,230,230" fill="1" layer="-1.00" shape="3650.982338,5846.138072 3646.854174,5850.185959 3651.214435,5854.599895 3655.342598,5850.552011 3650.982338,5846.138072"/>