<?xml version="1.0" encoding="UTF-8"?>

<!-- generated on 12/16/25 14:11:50 by Eclipse SUMO duarouter Version 1.5.0
<configuration xmlns:xsi="http://www.w3.org/2001/XMLSchema-instance" xsi:noNamespaceSchemaLocation="http://sumo.dlr.de/xsd/duarouterConfiguration.xsd">

    <input>
        <net-file value="karlshuld.net.xml"/>
        <route-files value="karlshuld.trips.xml"/>
    </input>

    <output>
        <output-file value="karlshuld.rou.xml"/>
        <alternatives-output value="karlshuld.rou.alt.xml"/>
    </output>

    <report>
        <ignore-errors value="true"/>
    </report>

</configuration>
-->

<routes xmlns:xsi="http://www.w3.org/2001/XMLSchema-instance" xsi:noNamespaceSchemaLocation="http://sumo.dlr.de/xsd/routes_file.xsd">
    <vehicle id="0" depart="0.00">
        <route edges="37213326#3 37213326#4 37213326#5 1206374126#9 102410378 1162859904#0 1162859904#1 102410379#0 102410379#1 -37202396#1 -37202396#0 36945792#0 36945792#1 36945792#2 36945792#3 36945792#4 36945792#5 36945792#6 36945792#7 36945792#8 36945792#9 36945792#10 -258928225 -258928226 -258928236#16"/>
    </vehicle>
    <vehicle id="1" depart="2.00">
        <route edges="-23135211#7 -23135211#6 -23135211#5 -23135211#4 -23135211#3 -23135211#2 -23135211#1 -23135211#0 23135211#0 23135211#1 23135211#2 23135211#3 23135211#4 23135211#5 23135211#6 23135211#7 23135211#8 23135211#9 23135211#10 23135211#11 23135211#12 23135211#13 23135211#14 23135211#15 23135211#16 23135211#17 23135211#18 23135211#19 23135211#20 23135211#21 23135211#22 23135211#23 23135211#24 23135211#25 23135211#26 23135211#27 23135211#28 23135211#29"/>
    </vehicle>
    <vehicle id="2" depart="4.00">
        <route edges="-506235262#11 -506235262#10 -506235262#9 -506235262#8 -506235262#7 -506235262#6 -506235262#5 -506235262#4 -506235262#3 -506235262#2 -506235262#1 -506235262#0 -1414197344 -23135211#74 -23135211#73 -23135211#72 -23135211#71 -23135211#70 -23135211#69 -23135211#68 -23135211#67 -23135211#66 -23135211#65 -23135211#64 -23135211#63 -23135211#62 -23135211#61 -23135211#60 -23135211#59 -23135211#58 -23135211#57 -23135211#56 -23135211#55 -23135211#54 -23135211#53 -23135211#52 -23135211#51 -23135211#50 -23135211#49 -23135211#48 -23135211#47 -23135211#46 -23135211#45 -23135211#44 -23135211#43 -23135211#42 -23135211#41 -23135211#40 -23135211#39 -23135211#38 -23135211#37 -23135211#36 -23135211#35 -23135211#34 -23135211#33 -23135211#32 -23135211#31 -23135211#30 -23135211#29 -23135211#28 -23135211#27 -23135211#26 -23135211#25 -23135211#24 -23135211#23 -23135211#22 -23135211#21 -23135211#20 -23135211#19 -23135211#18 -23135211#17 -23135211#16 -23135211#15 -23135211#14 -23135211#13 -23135211#12 -23135211#11 -23135211#10 -23135211#9 -23135211#8 -23135211#7 -23135211#6 -23135211#5 -23135211#4 -23135211#3 -23135211#2 -23135211#1 -23135211#0 513291977#0 513291977#1 513291977#2 513291977#3 513291977#4 513291977#5 513291977#6 513291977#7 513291977#8 513291977#9 513291977#10 513291977#11 238892999#0 238892999#1 238892999#2 238892999#3 238892999#4 238892999#5 238892999#6 238892999#7 238892999#8 238892999#9 238892999#10 238892999#11 238892999#12 238892999#13 238892999#14 238892999#15 238892999#16 238892999#17 238892999#18 238892999#19 238892999#20 238892999#21 238892999#22 238892999#23 238892999#24 238892999#25 238892999#26 238892999#27 238892999#28 238892999#29 238892999#30 238892999#31 238892999#32 238892999#33 238892999#34 238892999#35 238892999#36 238892999#37 238892999#38 238892999#39 238892999#40 238892999#41 238892999#42 238892999#43 238892999#44 238892999#45 238892999#46 238892999#47 238892999#48 238892999#49 238892999#50 238892999#51 238892999#52 238892999#53 238892999#54 238892999#55 238892999#56 238892999#57 238892999#58 238892999#59 238892999#60 238892999#61 238892999#62 238892999#63 238892999#64 238892999#65 238892999#66 238892999#67 238892999#68 238892999#69 238892999#70 238892999#71 37202767 -38774478#94 -38774478#93 -38774478#92 -38774478#91 -38774478#90 -38774478#89 -38774478#88 -38774478#87 -38774478#86 -38774478#85 -38774478#84"/>
    </vehicle>
    <vehicle id="3" depart="6.00">
        <route edges="37202496#10 -37202496#10 -37202496#9 -37202496#8 -37202496#7 -37202496#5 37202501#0 37202501#1 37202501#2 37202501#3 37202501#4 37202501#6 37202501#7 37202501#8 -37202501#8"/>
    </vehicle>
    <vehicle id="4" depart="8.00">
        <route edges="38774478#72 38774478#73 38774478#74 38774478#75 38774478#76 38774478#77 38774478#78 38774478#79 38774478#80 38774478#81 38774478#82 38774478#83 38774478#84 38774478#85 38774478#86 38774478#87 38774478#88 38774478#89 38774478#90 38774478#91 38774478#92 38774478#93 38774478#94 1206330968 1206330969 37202765#0 37202765#1 37202765#2 37202765#3 37202765#4 37202765#5 37202765#6 37202765#7 37202765#8 37202765#9 37202765#10 37202765#11 37202765#12 37202765#13 37202765#14 37202765#15 37202765#16 37202765#17 37202765#18 37202765#19 37202765#20 37202765#21 37202765#22 37202765#23 37202765#24 37202765#25 37202765#26 37202765#27 37202765#28 37202765#29 37202765#30 37202765#31 37202765#32 37202765#33 37202765#34 37202765#35 37202765#36 37202765#37 37202765#38 37202765#39 37202765#40 37202765#41 37202765#42 37202765#43 37202765#44 37202765#45 37202765#46 37202765#47 37202765#48 37202765#49 37202765#50 37202765#51 513288237#0 513288237#1 513288237#2 513288237#3 513288237#4 513288237#5 513288237#6 513288237#7 513288237#8 513288237#9 513288237#10 513288237#11 513288237#12 513288237#13 513288237#14 513288237#15 1206374127 1206374126#0 1206374126#1 1206374126#2 1206374126#3 1206374126#4 1206374126#5 1206374126#6 1206374126#7 1206374126#8 -1206374126#8 -1206374126#7 -1206374126#6 -1206374126#5 -1206374126#4 -1206374126#3 -1206374126#2 -1206374126#1 -1206374126#0 -1206374127 -513288237#15 -513288237#14 -513288237#13 -513288237#12 -513288237#11 -513288237#10 -513288237#9 -513288237#8 -513288237#7 -513288237#6 -513288237#5 -513288237#4"/>
    </vehicle>
    <vehicle id="5" depart="10.00">
        <route edges="-432233382#0 37202758#0 37202758#1 -37202764#3 -37202764#2 -37202764#1 -37202764#0 -513288238#29 -513288238#28 -513288238#27 -513288238#26 -513288238#25 -513288238#24 -513288238#23 -513288238#22 -513288238#21 -513288238#20 -513288238#19 -513288238#18 -513288238#17 -513288238#16 -513288238#15 -513288238#14 -513288238#13 -513288238#12 -513288238#11 -513288238#10 -513288238#9 -513288238#8 -513288238#7 -513288238#6 -513288238#5 -513288238#4 -513288238#3 -513288238#2 -513288238#1 -513288238#0 -891522069#1 -891522069#0 1206330969 1206330967 -238892999#71 -238892999#70 -238892999#69 -238892999#68 -238892999#67 -238892999#66 -238892999#65 -238892999#64 -238892999#63 -238892999#62 -238892999#61 -238892999#60 -238892999#59 -238892999#58 -238892999#57 -238892999#56 -238892999#55 -238892999#54 -238892999#53 -238892999#52 -238892999#51 -238892999#50 -238892999#49 -238892999#48 -238892999#47 -238892999#46 -238892999#45 -238892999#44 -238892999#43 -238892999#42 -238892999#41 -238892999#40 -238892999#39 -238892999#38 -238892999#37 -238892999#36 -238892999#35 -238892999#34 -238892999#33 -238892999#32 -238892999#31 -238892999#30 -238892999#29 -238892999#28 -238892999#27 -238892999#26 -238892999#25 -238892999#24 -238892999#23 -238892999#22 -238892999#21 -238892999#20 -238892999#19 -238892999#18 -238892999#17 -238892999#16 -238892999#15 -238892999#14 -238892999#13 -238892999#12 -238892999#11 -238892999#10 -238892999#9 -238892999#8 -238892999#7 -238892999#6 -238892999#5 -238892999#4 -238892999#3 -238892999#2 -238892999#1 -238892999#0 -513291977#11 -513291977#10 -513291977#9 -513291977#8 -513291977#7 -513291977#6 -513291977#5 -513291977#4 -513291977#3 -513291977#2 -513291977#1 -513291977#0 -238662939#50 -238662939#49 -238662939#48 -238662939#47 -238662939#46 -238662939#45 -238662939#44 -238662939#43 -238662939#42 -238662939#41 -238662939#40 -238662939#39 -238662939#38 -238662939#37 -238662939#36 -238662939#35 -238662939#34 -238662939#33 -238662939#32 -238662939#31 -238662939#30 -238662939#29 -238662939#28 -238662939#27 -238662939#26 -238662939#25 -238662939#24 -238662939#23 -238662939#22 -238662939#21 -238662939#20 -238662939#19 -238662939#18 -238662939#17"/>
    </vehicle>
    <vehicle id="6" depart="12.00">
        <route edges="37202765#3 37202765#4 37202765#5 37202765#6 37202765#7 37202765#8 37202765#9 37202765#10 -37202765#10 -37202765#9 -37202765#8 -37202765#7 -37202765#6 -37202765#5 -37202765#4 -37202765#3 -37202765#2 -37202765#1 -37202765#0 1206330967 37202767 -38774478#94 -38774478#93 -38774478#92 -38774478#91 -38774478#90 -38774478#89 -38774478#88 -38774478#87 -38774478#86 -38774478#85 -38774478#84 -38774478#83 -38774478#82 -38774478#81 -38774478#80 -38774478#79 -38774478#78 -38774478#77 -38774478#76 -38774478#75 -38774478#74 -38774478#73 -38774478#72 -38774478#71 -38774478#70 -38774478#69 -38774478#68 -38774478#67 -38774478#66 -38774478#65 -38774478#64 -38774478#63 -38774478#62 -38774478#61 -38774478#60 -38774478#59 -38774478#58 -38774478#57 -38774478#56 -38774478#55 -38774478#54 -38774478#53 -38774478#52 -38774478#51 -38774478#50 -38774478#49 -38774478#48 -38774478#47 -38774478#46 -38774478#45 -38774478#44 -38774478#43 -38774478#42 -38774478#41 -38774478#40 -38774478#39 -38774478#38 -38774478#37 -38774478#36 -38774478#35 -38774478#34 -38774478#33 -38774478#32 -38774478#31 -38774478#30 -38774478#29 -38774478#28 -38774478#27 -38774478#26 -38774478#25 -38774478#24 -38774478#23 -38774478#22 -38774478#21 -38774478#20 -38774478#19 -38774478#18 -38774478#17 -38774478#16 -38774478#15 -38774478#14 -38774478#13 -38774478#12 -38774478#11 -38774478#10 -38774478#9 -38774478#8 -38774478#7 -38774478#6 -38774478#5 -38774478#4 -38774478#3 -38774478#2 -38774478#1 -38774478#0 -1210490507 -1412490791#4 -1412490791#3 -1412490791#2 -1412490791#1 -1412490791#0 -159212054#9 -159212054#8 -159212054#7 -159212054#6 -159212054#5 -159212054#4 -159212054#3 -159212054#2 -159212054#1 -159212054#0 20558217#0 20558217#1"/>
    </vehicle>
    <vehicle id="7" depart="14.00">
        <route edges="-513288238#13 -513288238#12 -513288238#11 -513288238#10 -513288238#9 -513288238#8 -513288238#7 -513288238#6 -513288238#5 -513288238#4 -513288238#3 -513288238#2 -513288238#1 -513288238#0 -891522069#1 -891522069#0 1206330969 1206330967 37202767 -38774478#94 -38774478#93 -38774478#92 -38774478#91 -38774478#90 -38774478#89 -38774478#88 -38774478#87 -38774478#86 -38774478#85 -38774478#84 -38774478#83 -38774478#82 -38774478#81 -38774478#80 -38774478#79 -38774478#78 -38774478#77 -38774478#76 -38774478#75 -38774478#74 -38774478#73 -38774478#72 -38774478#71 -38774478#70 -38774478#69 -38774478#68 -38774478#67 -38774478#66 -38774478#65"/>
    </vehicle>
    <vehicle id="8" depart="16.00">
        <route edges="37202764#51 37202764#52 37202764#53 37202764#54 -37202764#54 -37202764#53 -37202764#52 -37202764#51 -37202764#50 -37202764#49 -37202764#48 -37202764#47 -37202764#46 -37202764#45 -37202764#44 -37202764#43 -37202764#42 -37202764#41 -37202764#40 -37202764#39 -37202764#38 -37202764#37 -37202764#36 -37202764#35 -37202764#34 -37202764#33 -37202764#32 -37202764#31 -37202764#30 -37202764#29 -37202764#28 -37202764#27 -37202764#26 -37202764#25 -37202764#24 -37202764#23 -37202764#22 -37202764#21 -37202764#20 -37202764#19 -37202764#18 -37202764#17 -37202764#16 -37202764#15 -37202764#14 -37202764#12 -37202764#11 -37202764#10 -37202764#9 -37202764#8 -37202764#7 -37202764#6 -37202764#5 -37202764#4 -37202764#3 -37202764#2 -37202764#1 -37202764#0 -513288238#29 -513288238#28 -513288238#27 -513288238#26 -513288238#25 -513288238#24 -513288238#23 -513288238#22 -513288238#21 -513288238#20 -513288238#19 -513288238#18 -513288238#17 -513288238#16 -513288238#15 -513288238#14 -513288238#13 -513288238#12 -513288238#11 -513288238#10 -513288238#9 -513288238#8 -513288238#7 -513288238#6 -513288238#5 -513288238#4 -513288238#3 -513288238#2 -513288238#1 -513288238#0 -891522069#1 -891522069#0 1206330969 1206330967 37202767 -38774478#94 -38774478#93 -38774478#92 -38774478#91 -38774478#90 -38774478#89 -38774478#88 -38774478#87 -38774478#86 -38774478#85 -38774478#84 -38774478#83 -38774478#82 -38774478#81 -38774478#80 -38774478#79 -38774478#78 -38774478#77 -38774478#76 -38774478#75 -38774478#74 -38774478#73 -38774478#72 -38774478#71 -38774478#70 -38774478#69 -38774478#68 -38774478#67 -38774478#66 -38774478#65 -38774478#64 -38774478#63 -38774478#62 -38774478#61 -38774478#60 -38774478#59 -38774478#58 -38774478#57 -38774478#56 -38774478#55 -38774478#54 -38774478#53 -38774478#52 -38774478#51 -38774478#50 -38774478#49 -38774478#48 -38774478#47 -38774478#46 -38774478#45 -38774478#44 -38774478#43 -38774478#42 -38774478#41 -38774478#40 -38774478#39 -38774478#38 -38774478#37 -38774478#36 -38774478#35 -38774478#34 -38774478#33 -38774478#32 -38774478#31 -38774478#30 -38774478#29 -38774478#28 -38774478#27 -38774478#26 -38774478#25 -38774478#24 -38774478#23 -38774478#22 -38774478#21 -38774478#20 -38774478#19 -38774478#18 -38774478#17 -38774478#16 -38774478#15 -38774478#14 -38774478#13 -38774478#12 -38774478#11 -38774478#10 -38774478#9 -38774478#8 -38774478#7 -38774478#6 -38774478#5 -38774478#4 -38774478#3 -38774478#2 -38774478#1 441318768 441318741 441318755 -441318755 -441318741"/>
    </vehicle>
    <vehicle id="9" depart="18.00">
        <route edges="37202507#6 -37202501#8 -37202501#7 -37202501#6 -37202501#4 -37202501#3 -37202501#2 -37202501#1 -37202501#0 37202496#5 37202496#7 37202496#8 37202496#9 37202496#10 -37202765#36 -37202765#35 -37202765#34 -37202765#33 -37202765#32 -37202765#31 -37202765#30 -37202765#29 -37202765#28 -37202765#27 -37202765#26 -37202765#25 -37202765#24 -37202765#23 -37202765#22 -37202765#21 -37202765#20 -37202765#19 -37202765#18 -37202765#17 -37202765#16 -37202765#15 -37202765#14 -37202765#13 -37202765#12 -37202765#11 -37202765#10 -37202765#9 -37202765#8 -37202765#7 -37202765#6 -37202765#5 -37202765#4 -37202765#3 -37202765#2 -37202765#1 -37202765#0 1206330967 -238892999#71 -238892999#70 -238892999#69 -238892999#68 -238892999#67 -238892999#66 -238892999#65 -238892999#64 -238892999#63 -238892999#62 -238892999#61 -238892999#60 -238892999#59 -238892999#58 -238892999#57 -238892999#56 -238892999#55 -238892999#54 -238892999#53 -238892999#52 -238892999#51 -238892999#50 -238892999#49 -238892999#48 -238892999#47 -238892999#46 -238892999#45 -238892999#44 -238892999#43 -238892999#42 -238892999#41 -238892999#40 -238892999#39 -238892999#38 -238892999#37 -238892999#36 -238892999#35 -238892999#34 -238892999#33 -238892999#32 -238892999#31 -238892999#30 -238892999#29 -238892999#28 -238892999#27 -238892999#26 -238892999#25 -238892999#24 -238892999#23 -238892999#22 -238892999#21 -238892999#20 -238892999#19 -238892999#18 -238892999#17 -238892999#16 -238892999#15 -238892999#14 -238892999#13 -238892999#12 -238892999#11 -238892999#10 -238892999#9 -238892999#8 -238892999#7 -238892999#6 -238892999#5 -238892999#4 -238892999#3 -238892999#2 -238892999#1 -238892999#0 -513291977#11 -513291977#10 -513291977#9 -513291977#8 -513291977#7 -513291977#6 -513291977#5 -513291977#4 -513291977#3 -513291977#2 -513291977#1 -513291977#0 23135211#0 23135211#1 23135211#2 23135211#3 23135211#4 23135211#5 23135211#6 23135211#7 23135211#8 23135211#9 23135211#10 23135211#11 23135211#12 23135211#13 23135211#14 23135211#15 23135211#16 23135211#17 23135211#18 23135211#19 23135211#20 23135211#21 23135211#22 23135211#23 23135211#24 23135211#25 23135211#26 23135211#27 23135211#28 23135211#29 23135211#30 23135211#31 23135211#32 23135211#33 23135211#34 23135211#35 23135211#36 23135211#37 23135211#38 23135211#39 23135211#40 23135211#41 23135211#42 23135211#43 23135211#44 23135211#45 23135211#46 23135211#47 23135211#48 23135211#49 23135211#50 23135211#51 23135211#52 23135211#53 23135211#54 23135211#55 23135211#56 23135211#57 23135211#58 23135211#59 23135211#60 23135211#61 23135211#62 23135211#63 23135211#64 23135211#65 23135211#66 23135211#67 23135211#68 23135211#69 23135211#70 23135211#71 23135211#72 23135211#73 23135211#74 -23135211#74 -23135211#73 -23135211#72 -23135211#71 -23135211#70 -23135211#69 -23135211#68 -23135211#67 -23135211#66 -23135211#65 -23135211#64 -23135211#63 -23135211#62 -23135211#61 -23135211#60 -23135211#59 -23135211#58 -23135211#57 -23135211#56 -23135211#55 -23135211#54 -23135211#53 -23135211#52 -23135211#51 -23135211#50 -23135211#49 -23135211#48 -23135211#47 -23135211#46 -23135211#45 -23135211#44 -23135211#43 -23135211#42 -23135211#41 -23135211#40 -23135211#39 -23135211#38 -23135211#37 -23135211#36 -23135211#35 -23135211#34 -23135211#33 -23135211#32 -23135211#31 -23135211#30 -23135211#29 -23135211#28 -23135211#27 -23135211#26 -23135211#25 -23135211#24 -23135211#23 -23135211#22 -23135211#21 -23135211#20 -23135211#19 -23135211#18 -23135211#17 -23135211#16 -23135211#15 -23135211#14 -23135211#13 -23135211#12 -23135211#11 -23135211#10 -23135211#9 -23135211#8 -23135211#7 -23135211#6 -23135211#5 -23135211#4 -23135211#3 -23135211#2 -23135211#1"/>
    </vehicle>
    <vehicle id="10" depart="20.00">
        <route edges="-37202721#0 -37202718#3 37202727 -37202599#0 37202496#0 37202496#1 37202496#2 37202496#3 37202496#4 37202496#5 37202496#7 37202496#8 37202496#9 37202496#10 -37202765#36 -37202765#35 -37202765#34 -37202765#33 -37202765#32 -37202765#31 -37202765#30 -37202765#29 -37202765#28 -37202765#27 -37202765#26 -37202765#25 -37202765#24 -37202765#23 -37202765#22 -37202765#21 -37202765#20 -37202765#19 -37202765#18 -37202765#17 -37202765#16 -37202765#15 -37202765#14 -37202765#13 -37202765#12 -37202765#11 -37202765#10 -37202765#9 -37202765#8 -37202765#7 -37202765#6 -37202765#5 -37202765#4 -37202765#3 -37202765#2 -37202765#1 -37202765#0 1206330967 37202767 -38774478#94 -38774478#93 -38774478#92 -38774478#91 -38774478#90 -38774478#89 -38774478#88 -38774478#87 -38774478#86 -38774478#85 -38774478#84 -38774478#83 -38774478#82 -38774478#81 -38774478#80 -38774478#79 -38774478#78 -38774478#77 -38774478#76 -38774478#75 -38774478#74 -38774478#73 -38774478#72 -38774478#71 -38774478#70 -38774478#69 -38774478#68 -38774478#67 -38774478#66 -38774478#65 -38774478#64 -38774478#63 -38774478#62 -38774478#61 -38774478#60 -38774478#59 -38774478#58 -38774478#57 -38774478#56 -38774478#55 -38774478#54 -38774478#53 -38774478#52 -38774478#51 -38774478#50 -38774478#49 -38774478#48 -38774478#47 -38774478#46 -38774478#45 -38774478#44 -38774478#43 -38774478#42 -38774478#41 -38774478#40 -38774478#39 -38774478#38 -38774478#37 -38774478#36 -38774478#35 -38774478#34 -38774478#33 -38774478#32 -38774478#31 -38774478#30 -38774478#29 -38774478#28 -38774478#27 -38774478#26 -38774478#25 -38774478#24 -38774478#23 -38774478#22 -38774478#21 -38774478#20 -38774478#19 -38774478#18 -38774478#17 -38774478#16 -38774478#15 -38774478#14 -38774478#13 -38774478#12 -38774478#11 -38774478#10 -38774478#9 -38774478#8 -38774478#7 -38774478#6 -38774478#5 -38774478#4 -38774478#3 -38774478#2 -38774478#1 -38774478#0 -1210490507 -23135188#80 -23135188#79 -23135188#78 -23135188#77 -23135188#76 -23135188#75 -23135188#74 -23135188#73 -23135188#72 -23135188#71 -23135188#70 -23135188#69 -23135188#68 -23135188#67 -23135188#66 -23135188#65 -23135188#64 -23135188#63 -23135188#62 -23135188#61 -23135188#60 -23135188#59 -23135188#58 -23135188#57 -23135188#56 -23135188#55 -23135188#54 -23135188#53 -23135188#52 -23135188#51 -23135188#50 -23135188#49 -23135188#48 -23135188#47 -23135188#46 -23135188#45 -23135188#44 -23135188#43 -23135188#42 -23135188#41 -23135188#40 -23135188#39 -23135188#38 -23135188#37 -23135188#36 -23135188#35 -23135188#34 -23135188#33 -23135188#32 -23135188#31 -23135188#30 -23135188#29 -23135188#28 -23135188#27 -23135188#26 -23135188#25 -23135188#24 -23135188#23 -23135188#22 -23135188#21 -23135188#20 -23135188#19 -23135188#18 -23135188#17 -23135188#16 -23135188#15 -23135188#14 -23135188#13 -23135188#12 -23135188#11 -23135188#10 -23135188#9 -23135188#8 -23135188#7 -23135188#6 -23135188#5 23135188#5"/>
    </vehicle>
    <vehicle id="11" depart="22.00">
        <route edges="37202498#0 37202498#1 37202496#9 37202496#10 -37202765#36 -37202765#35 -37202765#34 -37202765#33 -37202765#32 -37202765#31 -37202765#30 -37202765#29 -37202765#28 -37202765#27 -37202765#26 -37202765#25 -37202765#24 -37202765#23 -37202765#22 -37202765#21 -37202765#20 -37202765#19 -37202765#18 -37202765#17 -37202765#16 -37202765#15 -37202765#14 -37202765#13 -37202765#12 -37202765#11 -37202765#10 -37202765#9 -37202765#8 -37202765#7 -37202765#6 -37202765#5 -37202765#4 -37202765#3 -37202765#2 -37202765#1 -37202765#0 1206330967 37202767 -38774478#94 -38774478#93 -38774478#92 -38774478#91 -38774478#90 -38774478#89 -38774478#88 -38774478#87 -38774478#86 -38774478#85 -38774478#84 -38774478#83 -38774478#82 -38774478#81 -38774478#80 -38774478#79 -38774478#78 -38774478#77 -38774478#76 -38774478#75 -38774478#74 -38774478#73 -38774478#72 -38774478#71 -38774478#70 -38774478#69 -38774478#68 -38774478#67 -38774478#66 -38774478#65 -38774478#64 -38774478#63 -38774478#62 -38774478#61 -38774478#60 -38774478#59 -38774478#58 -38774478#57 -38774478#56 -38774478#55 -38774478#54 -38774478#53 -38774478#52 -38774478#51 -38774478#50 -38774478#49 -38774478#48 -38774478#47 -38774478#46 -38774478#45 -38774478#44 -38774478#43 -38774478#42 -38774478#41 -38774478#40 -38774478#39 -38774478#38 -38774478#37 -38774478#36 -38774478#35 -38774478#34 -38774478#33 -38774478#32 -38774478#31 -38774478#30 -38774478#29 -38774478#28 -38774478#27 -38774478#26 -38774478#25 -38774478#24 -38774478#23 -38774478#22 -38774478#21 -38774478#20 -38774478#19 -38774478#18 -38774478#17 -38774478#16 -38774478#15 -38774478#14 -38774478#13 -38774478#12 -38774478#11 -38774478#10 -38774478#9 -38774478#8 -38774478#7 -38774478#6 -38774478#5 -38774478#4 -38774478#3 -38774478#2 -38774478#1 -38774478#0 -1210490507 -1412490791#4 -1412490791#3 -1412490791#2 -1412490791#1 -1412490791#0 -159212054#9 -159212054#8 -159212054#7 -159212054#6 -159212054#5 -159212054#4 -159212054#3 -159212054#2 -159212054#1 -159212054#0 20558217#0 20558217#1 40243958#0 40243958#1 40243958#2 40243958#3 40243958#4 40243958#5 40243958#6 40243958#7 40243958#8 40243958#9 40243958#10 40243958#11 40243958#12 40243958#13 40243958#14 40243958#15 40243958#16 40243958#17 40243958#18 40243958#19 40243958#20 40243958#21 40243958#22 914177808 914177807 914177805 914177806#0 914177806#1 914177806#2 914177806#3 914177806#4 914177806#5 914177806#6 914177806#7 914177806#8 914177806#9"/>
    </vehicle>
    <vehicle id="12" depart="24.00">
        <route edges="-37202765#2 -37202765#1 -37202765#0 1206330967 37202767 -38774478#94 -38774478#93 -38774478#92 -38774478#91 -38774478#90 -38774478#89 -38774478#88 -38774478#87 -38774478#86 -38774478#85 -38774478#84 -38774478#83 -38774478#82 -38774478#81 -38774478#80 -38774478#79 -38774478#78 -38774478#77 -38774478#76 -38774478#75 -38774478#74 -38774478#73 -38774478#72 -38774478#71 -38774478#70 -38774478#69 -38774478#68 -38774478#67 -38774478#66 -38774478#65 -38774478#64 -38774478#63 -38774478#62 -38774478#61 -38774478#60 -38774478#59 -38774478#58 -38774478#57 -38774478#56 -38774478#55 -38774478#54 -38774478#53 -38774478#52 -38774478#51 -38774478#50 -38774478#49 -38774478#48 -38774478#47 -38774478#46 -38774478#45 -38774478#44 -38774478#43 -38774478#42 -38774478#41 -38774478#40 -38774478#39 -38774478#38 -38774478#37 -38774478#36 -38774478#35 -38774478#34 -38774478#33 -38774478#32 -38774478#31 -38774478#30 -38774478#29 -38774478#28 -38774478#27 -38774478#26 -38774478#25 -38774478#24 -38774478#23 -38774478#22 -38774478#21 -38774478#20 -38774478#19 -38774478#18 -38774478#17 -38774478#16 -38774478#15 -38774478#14 -38774478#13 -38774478#12 -38774478#11 -38774478#10 -38774478#9 -38774478#8 -38774478#7 -38774478#6 -38774478#5 -38774478#4 -38774478#3 -38774478#2 -38774478#1 -38774478#0 -1210490507 36990589#0 36990589#1 36990589#2 36990589#3 36990589#4 36990589#5 36990589#6 36990589#7 36990589#8 36990589#9 36990589#10 36990589#11 36990589#12 36990589#13 36990589#14 36990589#15 36990589#16 36990589#17 36990589#18 36990589#19 36990589#20 36990589#21 36990589#22 36990589#23 36990589#24 36990589#25 36990589#26 36990589#27 36990589#28 36990589#29 36990589#30 36990589#31 36990589#32 36990589#33 36990589#34 36990589#35 36990589#36 36990589#37 36990589#38 36990589#39 36990589#40 36990589#41 36990589#42 36990589#43 36990589#44"/>
    </vehicle>
    <vehicle id="13" depart="26.00">
        <route edges="121123143#11 1210417700#0 1210417700#1 1210417700#2 -1210417700#2 -1210417700#1 -1210417700#0 -121123143#11 -121123143#10 -121123143#9 -121123143#8 -121123143#7 -121123143#6 -121123143#5 -121123143#4 -121123143#3 -121123143#2 -121123143#1 -121123143#0 -1210502813#3 -1210502813#2 -1210502813#1 -1210502813#0 -914177806#17 -914177806#16 -914177806#15 -914177806#14 -914177806#13 -914177806#12 -914177806#11 -914177806#10 -914177806#9 -914177806#8 -914177806#7 -914177806#6 -914177806#5 -914177806#4 -914177806#3 -914177806#2 -914177806#1 -914177806#0 -914177805 -914177807 -914177808 -40243958#22 -40243958#21 -40243958#20 -40243958#19 -40243958#18 -40243958#17 -40243958#16 -40243958#15 -40243958#14 -40243958#13 -40243958#12 -40243958#11 -40243958#10 -40243958#9 -40243958#8 -40243958#7 -40243958#6 -40243958#5 -40243958#4 -40243958#3 -40243958#2 -40243958#1 -40243958#0 -20558217#1 -20558217#0 159212054#0 159212054#1 159212054#2 159212054#3 159212054#4 159212054#5 159212054#6 159212054#7 159212054#8 159212054#9 1412490791#0 1412490791#1 1412490791#2 1412490791#3 1412490791#4 36990589#0 36990589#1 36990589#2 36990589#3 36990589#4 36990589#5 36990589#6 36990589#7 36990589#8 36990589#9 36990589#10 36990589#11 36990589#12 36990589#13 36990589#14 36990589#15 36990589#16 36990589#17 36990589#18 36990589#19 36990589#20 36990589#21 36990589#22 36990589#23 36990589#24 36990589#25 36990589#26 36990589#27 36990589#28 36990589#29 36990589#30 36990589#31 36990589#32 36990589#33 36990589#34 36990589#35 36990589#36 36990589#37 36990589#38 36990589#39 36990589#40 36990589#41 36990589#42 36990589#43 36990589#44 36990589#45 36990589#46 36990589#47 36990589#48 36990589#49 36990589#50 36990589#51 36990589#52 36990589#53 36990589#54 36990589#55 36990589#56 36990589#57 36990589#58 36990589#59 36990589#60 36990589#61 36990589#62 36990589#63 36990589#64 36990589#65 36990589#66 36990589#67 36990589#68 36990589#69 36990589#70 36990589#71 36990589#72 36990589#73 36990589#74 36990589#75 36990589#76 36990589#77 36990589#78 36990589#79 36990589#80 36990589#81 36990589#82 36990589#83 36990589#84 36990589#85 36990589#86 36990589#87 36990589#88 1414208584 1414197344 506235262#0 506235262#1 506235262#2 506235262#3 506235262#4 506235262#5 506235262#6 506235262#7 506235262#8 506235262#9 506235262#10 506235262#11"/>
    </vehicle>
    <vehicle id="14" depart="28.00">
        <route edges="37202764#5 37202764#6 37202764#7 37202764#8 37202764#9 37202764#10 37202764#11 37202764#12 -37202764#12 -37202764#11 -37202764#10 -37202764#9 -37202764#8 -37202764#7 -37202764#6 -37202764#5 -37202764#4 -37202764#3 -37202764#2 -37202764#1 -37202764#0 37202506#0 37202506#1 37202506#2 37202506#3 37202506#4 37202607#0 37202607#1 37202608#0 37202608#1 37202608#2 37202608#3 37202608#4 37202608#5 37202608#6 37202608#7 37202496#1 37202496#2 37202496#3 37202496#4 37202496#5 -1312620927#3 -1312620927#2 1312620927#2 1312620927#3"/>
    </vehicle>
    <vehicle id="15" depart="30.00">
        <route edges="-240665284 -38774479 38774479 240665284 240665285 507660761#0 507660761#1 159212054#0 159212054#1 159212054#2 159212054#3 159212054#4 159212054#5 159212054#6 159212054#7 159212054#8 159212054#9 1412490791#0 1412490791#1 1412490791#2 1412490791#3 1412490791#4 1210490507 38774478#0 38774478#1 38774478#2 38774478#3 38774478#4 38774478#5 38774478#6 38774478#7 38774478#8 38774478#9 38774478#10 38774478#11 38774478#12 38774478#13 38774478#14 38774478#15 38774478#16 38774478#17 38774478#18 38774478#19 38774478#20 38774478#21 38774478#22 38774478#23 38774478#24 38774478#25 38774478#26 38774478#27 38774478#28 38774478#29 38774478#30 38774478#31 38774478#32 38774478#33 38774478#34 38774478#35 38774478#36 38774478#37 38774478#38 38774478#39 38774478#40 38774478#41 38774478#42 38774478#43 38774478#44 38774478#45 38774478#46 38774478#47 38774478#48 38774478#49 38774478#50 38774478#51 38774478#52 38774478#53 38774478#54 38774478#55 38774478#56 38774478#57 38774478#58 38774478#59 38774478#60 38774478#61 38774478#62 38774478#63 38774478#64 38774478#65 38774478#66 38774478#67 38774478#68 38774478#69 38774478#70 38774478#71 38774478#72 38774478#73 38774478#74 38774478#75 38774478#76 38774478#77 38774478#78 38774478#79 38774478#80 38774478#81 38774478#82 38774478#83 38774478#84 38774478#85 38774478#86 38774478#87 38774478#88 38774478#89 38774478#90 38774478#91 38774478#92 38774478#93 38774478#94 1206330968 891522069#0 891522069#1 513288238#0 513288238#1 513288238#2 513288238#3 513288238#4 513288238#5 513288238#6 513288238#7 513288238#8 513288238#9 513288238#10 513288238#11 513288238#12 513288238#13 513288238#14 513288238#15 513288238#16 513288238#17 513288238#18 513288238#19 513288238#20 513288238#21 513288238#22 513288238#23 513288238#24 513288238#25 513288238#26 513288238#27 513288238#28 513288238#29 37202506#0 37202506#1 37202506#2 37202506#3 37202506#4 490867174#0 490867174#1 490867174#2 490867174#3 490867174#4 490867174#5 490867174#6 490867174#7"/>
    </vehicle>
    <vehicle id="16" depart="32.00">
        <route edges="37203054#0 37203054#1 513288236#2 513288236#3 513288236#4 513288236#5 513288236#6 37202507#0 37202507#1 37202507#2 37202507#3 37202507#4 37202507#5 37202507#6 -37202501#8 -37202501#7 -37202502"/>
    </vehicle>
    <vehicle id="17" depart="34.00">