<?xml version="1.0" encoding="UTF-8"?>

<!-- generated on 2025-11-26 16:25:25 by Eclipse SUMO duarouter Version 1.24.0
<duarouterConfiguration xmlns:xsi="http://www.w3.org/2001/XMLSchema-instance" xsi:noNamespaceSchemaLocation="http://sumo.dlr.de/xsd/duarouterConfiguration.xsd">

    <input>
        <net-file value=".\manching.net.xml"/>
        <route-files value=".\manching.trips.xml"/>
    </input>

    <output>
        <output-file value=".\manching.rou.xml"/>
    </output>

    <processing>
        <remove-loops value="true"/>
    </processing>

    <report>
        <log value=".\duarouter.log"/>
        <ignore-errors value="true"/>
    </report>

</duarouterConfiguration>
-->

<routes xmlns:xsi="http://www.w3.org/2001/XMLSchema-instance" xsi:noNamespaceSchemaLocation="http://sumo.dlr.de/xsd/routes_file.xsd">
    <vehicle id="dmy0" depart="1.00">
        <route edges="-28957258#4 28957262#0 28957262#1 28957262#2 28957262#3 28957262#4 28957261#1 28957261#2 -28972857#0 -39218132 -507756254 -1064823425 -1064823426 -487443912#1 -487443912#0 -229599369 -229599367 -229599368 -92973906 -229599371 -329414032 799104269 799104267 1313899167 799104285 -1312425708 -548696194 -507755997 27285301 1313899169 225772539 345319794 225772536 225772534#0 225772534#1 225772534#2 225772534#3 225772534#4 225772534#5 225772534#6 225772534#7 -27794123#2 -27794123#1 -27794123#0 27284741#1 27284741#2 27284741#3 143195217#0 143195217#1 143195217#2 143195216#0 143195216#1 143195216#2 289804408 1181135651#0 1181135651#1 1181135651#2 218041543#0 218041543#1 -28220784#11"/>
    </vehicle>
    <vehicle id="dmy1" depart="2.00">
        <route edges="-555680415#1 -555680415#0 -378946904 -28372001#2 -28372001#1 -28372001#0 39354755#0 39354755#1 -842456298#4 -842456298#3 -842456298#2 -842456298#1 -842456298#0 -28199464 -699160904 -148527695#1 -148527695#0 -1412178119"/>
    </vehicle>
    <vehicle id="dmy2" depart="3.00">
        <route edges="26084087#1 -342491456#1 -342491456#0 -986281368 -4273102 -1421381161 -100361362 -315517076 -48301705#1 -48301705#0 -100361376#1 -100361376#0 -29083379 26157277 842456301 1064823423 30607864 328713268 329414030 487445020#0 799104277 -1291240173 -799104279 -799104271 -799104272 799104281 1313899168 1313899162 1313899167 799104285 -1312425708 -548696194 -507755997 -461330135 -51843868 -51843867 -51843866 -461330137 -507755682 -30673972 -30673971 -51843989 -168853057 168853059#0"/>
    </vehicle>
    <vehicle id="dmy3" depart="4.00">
        <route edges="234458498 -28050849#2 -28050849#1 -28050849#0 -1446901010 -1446901013 -1446901011 -1426184494#1 -1426184494#0 -1426184493 -1421381159#1 966565464#0 966565464#1 966565464#2 966565464#3 966565464#4 966565464#5 27184837#0 27184837#1 27184837#2 27184837#3 41493977 34909817 27184836#0 27184836#1 27184836#2 27184836#3 27184836#4 -4810368#1 -4810368#0 -195103645#2 -195103645#1 -195103645#0 -195103643 -195103648#2 -195103648#1 -195103648#0 -195103641 -10765119#5 -10765119#4 -10765119#3 -10765119#2 -10765119#1 -10765119#0 -10765121 4810351#0 4810351#1 4810351#2 143311147#0 143311147#1 143311153 315517078#2 315517077#0 315517077#1"/>
    </vehicle>
    <vehicle id="dmy4" depart="4.00">
        <route edges="30672852#2 31955679#4 31955679#5 28285974#2 28285974#3 1181135650#1 1181135650#2 10880956 986559723 986559722 -1424400853#4 -1424400853#3 -1424400853#2 -1424400853#1 -1424400853#0 -23781306#5 -23781306#4 -23781306#3 -4815006 -51983955#1 -51983955#0 31962969 92973915 92973905 107420247 279029852 107420251 166348774 1112136865 52280850 52280853 43413482 200941799 4272939 146973208 279029850 150409784 200941798 150409783 43413477 746701838 279029851"/>
    </vehicle>
    <vehicle id="dmy5" depart="5.00">
        <route edges="-27015258#3 -27015258#2 -27015258#1 -27015258#0 -51983955#0 31962969 -92973910 -92973907 -107420250 -200941800 -55600014 -941028476 -941028475 -888213893 -201771330 857749995 1112520397 1178361853 201771332#0 201771332#1 201771332#2 201771332#3 201771332#4 201771332#5 201771332#6 201771332#7 201771332#8 1421381158#0 1421381158#1 1421381158#2 28330357#0 28330357#1 28330357#2 77056959#4 77056959#5"/>
    </vehicle>
    <vehicle id="dmy6" depart="6.00">
        <route edges="-234458491 -1421381158#0 -201771332#8 -201771332#7 -201771332#6 -201771332#5 -201771332#4 -201771332#3 -201771332#2 -201771332#1 -201771332#0 -1178361853 857749996 -201771330 -858290131 -107418679 -107420256 -28050851 -107418678 -23776089"/>
    </vehicle>
    <vehicle id="dmy7" depart="7.00">
        <route edges="196346346 55600014 200941800 107420250 92973907 92973910 92973915 92973905 107420247 279029852 107420251 166348774 1112136865 52280850 52280853 43413482 200941799 4272939 146973208 279029850 150409784 200941798 150409783 43413477 746701838 279029851 746701839 48916236 48916235 329414038 92973912 92973913 52031453 1064823423 30607864 328713268 329414030 487445020#0 487445020#1 165354654 1448391120 1064823424 842456292 842456295 229599361 1312425706 329414032 229599371 92973906 229599368 229599367 229599369 487443912#0 487443912#1 1064823426 1064823425 507756254 39218132 28972857#0 -28957261#2 -28957261#1 -28957262#4 -28957262#3 28957264 332464368#0"/>
    </vehicle>
    <vehicle id="dmy8" depart="8.00">
        <route edges="-28285909 -28156258#0 -231208845 -231208844 -23939684#10 -23939684#9 -23939684#8 -23939684#7 -23939684#6 -23939684#5 -23939684#4 -23939684#3 -23939684#2 -23939684#1 -23939684#0 -194147516 -23939681 -168853056#6 -168853056#5 -168853056#4 -168853056#3 -168853056#2 -168853056#1 -168853056#0 23175511 51843989 30673971 30673972 507755682 24028125 507755683 61671154 712545180#0 712545180#1 712545180#2 712545180#3 712545180#4 712545180#5 507755681 521349998#0 521349998#1 521349996 507755680#0 507755680#1 121751961#0 121751961#1 121751960#0 121751960#1 121751960#2 -28972856#5 -28972856#4 -28972856#3 -28972856#2 -28972856#1 -28972856#0 1157655580 -1180419643#1 -1180419643#0 -487445019#1 -487445019#0 -507756252#2 -507756252#1 -507756252#0 -970095854 -28972858#6 -28972858#5 -28972858#4 -28972858#3 -28972858#2 -28972858#1 -28972858#0 -548695741 -28972857#6 -28972857#5 -28972857#4 -28972857#3 -28972857#2 -28972857#1 -28972857#0"/>
    </vehicle>
    <vehicle id="dmy9" depart="10.00">
        <route edges="23781481#3 23781481#4 23781483#1 23781483#2 51993874#13 51993874#14 51993874#15 986559720 888213886 388317385#0 388317385#1 388317385#2 1177241300 10880954 10880955#0 10880955#1 10880955#2 10880955#3 10880955#4 1446901008 1112520398 -196346345 196346346 55600014 200941800 107420250 92973907 92973910 92973915 92973905 107420247 279029852 107420251 166348774 1112136865 52280850 52280853 43413482 200941799 4272939 146973208 279029850 150409784 200941798 150409783 43413477 746701838 279029851 746701839 48916236 48916235 329414038 92973912 92973913 52031453 1064823423 30607864 328713268 329414030 487445020#0 487445020#1 165354654 1448391120 1064823424 842456292 842456295 229599361 1312425706 329414032 229599371 92973906 229599368 487475888 -1448505992 -507756253#1 -507756253#0 -507756254 -1064823425 -1064823426 -487443912#1 -487443912#0"/>
    </vehicle>
    <vehicle id="dmy10" depart="11.00">
        <route edges="28156258#5 28156258#6 28156258#7 28612389#0 28612389#1 28612389#2 28612389#3 -52061881#7 -28612156#4 -28612156#3"/>
    </vehicle>
    <vehicle id="dmy11" depart="12.00">
        <route edges="28285815 -28220784#3 28612156#0 28612156#1 28612156#2 28612156#3 28612156#4 52061881#7 52061881#8 52061881#9 52061881#10 52061881#11 52061881#12 1181135650#0 1181135650#1 1181135650#2 10880956 986559723 986559722 -1424400853#4 -1424400853#3 -1424400853#2 -1424400853#1 -1424400853#0 -23781306#5 -23781306#4 -23781306#3 -23781306#2 -23781306#1 -23781306#0 -23781302 -1225765325 -1225765326 -4815004#2 -4815004#1 -4815004#0 4815062 1178438383 624179341 -1446901007 28331225#0 28331225#1 28331225#2 -34909817 -41493977 -27184837#3 -27184837#2"/>
    </vehicle>
    <vehicle id="dmy12" depart="13.00">
        <route edges="978932716#1 39499930#0 39499930#1 52027376 52027375#0 52027375#1 61319717#6 61319717#7 41494279 1426184492#0 1426184492#1 -1112520398 -1446901008 -10880955#4 -10880955#3 -10880955#2 -10880955#1 -10880955#0 378946913#0 378946913#1 -388317385#2 -388317385#1 -388317385#0 -888213886 -986559720 -986559721#1 -986559721#0 -1424414782 -10880957#1 -10880957#0 -986559722 -986559723 -10880956 -1181135650#2 -1181135650#1 -28285974#3 -28285974#2 -28285974#1 29083278 29083279#3 23879813#5"/>
    </vehicle>
    <vehicle id="dmy13" depart="14.00">
        <route edges="-1421381161 -100361362 -315517076 -48301705#1 -48301705#0 -100361376#1 -100361376#0 -29083379 26157277 842456301 -52031453 -92973913 -92973912 -329414038 -48916235 -48916236 -746701839 -279029851 -746701838 -43413477 -150409783 -200941798 -150409784 -279029850 -146973208 -4272939 -200941799 -43413482 -52280853 -52280850 -1112136865 -166348774 -107420251 -279029852 -107420247 -92973905 -92973915 -92973910 -92973907 31962914 -1225765327#2 -1225765327#1 -1225765327#0 4815030 -1225765326 -4815004#2 -4815004#1 -4815004#0 4815062 33152139#0 33152139#1 33152139#2 -33152127#1"/>
    </vehicle>
    <vehicle id="dmy14" depart="16.00">
        <route edges="-28156276#0 28156254#2 28156258#7 28156258#8 28156258#9 1181135651#1 1181135651#2 218041543#0 218041543#1 218041543#2 218041543#3 1181135650#0 1181135650#1 1181135650#2 10880956 986559723 986559722 10880957#0 10880957#1 1424414782 986559721#0 986559721#1 986559720 888213886 388317385#0 388317385#1 388317385#2 1177241300 10880954 10880955#0 10880955#1 10880955#2 10880955#3 10880955#4 1446901008 1112520398 -196346345 196346346 -941028476 -941028475 -888213893 -201771330 857749995 1112520397 1178361853 201771332#0 201771332#1 201771332#2 201771332#3 201771332#4 201771332#5 201771332#6 201771332#7 201771332#8 1178438900#0 1178438900#1 1421381159#0 1421381159#1 1426184493 1426184494#0 1426184494#1 1446901011 201771331#0 201771331#1 201771331#2 201771331#3 -61319722"/>
    </vehicle>
    <vehicle id="dmy15" depart="18.00">
        <route edges="27015258#5 27015258#6 -1424400854#1 -1424400854#0 -51983954#7 -51983954#6 -51983954#5 -51983954#4 -51983954#3 -31962476#1 -31962476#0 -23781306#4 -23781266#1 -23781266#0 51993876#0 51993876#1 -23781418#2 -23781418#1 23781427 -51993874#3 -51993874#2"/>
    </vehicle>
    <vehicle id="dmy16" depart="19.00">
        <route edges="-28330044#1 -28330044#0 -28330045#5 -28330045#4 -28330045#3 -28330045#2 -28330045#1 -28330045#0 -28329404 -33152140#5 -33152140#4 28329480#0 28329480#1 28329480#2 -28050856#0 201771332#1"/>
    </vehicle>
    <vehicle id="dmy17" depart="22.00">
        <route edges="23441732#10 1313899170 -507755997 27285301 1313899169 225772539 345319794 225772536 225772534#0 225772534#1 225772534#2 225772534#3 225772534#4 225772534#5 225772534#6 225772534#7 -27794123#2 -27794123#1 -27794123#0 27284741#1 27284741#2 27284741#3 143195217#0 143195217#1 143195217#2 143195216#0 143195216#1 143195216#2 289804408 1181135651#0 1181135651#1 1181135651#2 218041543#0 218041543#1 218041543#2 218041543#3 1181135650#0 1181135650#1 1181135650#2 10880956 986559723 986559722 -1424400853#4 -1424400853#3 -1424400853#2 -1424400853#1 -1424400853#0 51983954#0 51983954#1 51983954#2"/>
    </vehicle>
    <vehicle id="dmy18" depart="22.00">
        <route edges="-28199464 -329414030 -328713268 -30607864 -1064823423 -52031453 -92973913 -92973912 -329414038 -48916235 -48916236 -746701839 -279029851 -746701838 -43413477 -150409783 -200941798 -150409784 -279029850 -146973208 -4272939 -200941799 -43413482 -52280853 -52280850 -1112136865 -166348774 -107420251 -279029852 -107420247 -92973905 -92973915 -92973910 -92973907 -107420250 -200941800 -55600014 -941028476 -941028475 -888213893 -201771330 -858290131 -107418679 -107420256 -28050851 -107418678 -23776089 -23776085 -34909810 -159086916 -200936416 -159086917 121466402 -200936417 200936418 844989745 72782140#0 72782140#1 100361356 34909811 34909814 986559716"/>
    </vehicle>
    <vehicle id="dmy19" depart="24.00">
        <route edges="-148527695#1 -148527695#0 -1412178119 -842456299#1 -842456299#0 -388936250 -507755271 -388936251#2 -388936251#1 -388936251#0 -16796020#11 -16796020#10 -16796020#9 -16796020#8 -16796020#7 -16796020#6 -16796020#5 -16796020#4 -16796020#3 -16796020#2 -16796020#1 -16796020#0 4815046 143195216#0 143195216#1 143195216#2 289804408 1181135651#0 1181135651#1 1181135651#2 218041543#0 218041543#1 218041543#2 218041543#3 1181135650#0 1181135650#1 1181135650#2 10880956 986559723 986559722 10880957#0 23781239#0 23781239#1 23781239#2 23781239#3 23781239#4 23781239#5 -23781408#10 -23781408#9 -23781408#8 -23781408#7 -23781408#6 -23781408#5 -23781408#4 -23781408#3 -23781408#2 -23781408#1 -23781408#0 -23781243#14 -23781243#13 -23781243#12 -23781243#11 -23781243#10"/>
    </vehicle>
    <vehicle id="dmy20" depart="25.00">
        <route edges="28199464 842456298#0 799104275 799104273 799104274 -1312425705 -842456299#1 -842456299#0 -388936250 -507755271 -388936251#2 -27794121#5 -27794121#4 -27794121#3 -27794121#2 -27794118#4 27794096#0"/>
    </vehicle>
    <vehicle id="dmy21" depart="27.00">
        <route edges="23939684#1 23939684#2 23939684#3 23939684#4 23939684#5 23939684#6 23939684#7 23939684#8 23939684#9 23939684#10 231208844 231208845 28156258#0 28156258#1 28156258#2 28156258#3 28156258#4 28156258#5 28156258#6 28156258#7 28156258#8 28156258#9 1181135651#1 1181135651#2 218041543#0 218041543#1 218041543#2 218041543#3 1181135650#0 1181135650#1 1181135650#2 10880956 986559723 986559722 10880957#0 10880957#1 1424414782 986559721#0 986559721#1 -23781243#21 -23781243#20 -23781243#19 -23781243#18 -23781243#17 -23781243#16"/>
    </vehicle>
    <vehicle id="dmy22" depart="28.00">
        <route edges="23879813#2 23879813#3 23879813#4 23879813#5 28285974#0 28285974#1 28285974#2 28285974#3 1181135650#1 1181135650#2 10880956 986559723 986559722 10880957#0 23781239#0 23781239#1 23781239#2 23781239#3 23781239#4 23781239#5 -23781408#10 -23781408#9 -23781408#8 -23781408#7 -23781408#6 -23781408#5 -23781408#4 -23781408#3 -23781408#2 -23781408#1 -23781408#0 23781243#15 23781243#16 23781243#17 23781243#18 23781243#19"/>
    </vehicle>
    <vehicle id="dmy23" depart="28.00">
        <route edges="342491456#0 342491456#1 986281367#0 986281367#1 52120502#0 52120502#1 52120502#2 52120502#3 143311135#0 143311135#1 388936247#0 388936247#1 388936247#2 29120597#0 29120597#1 29120597#2 29120597#3 29120597#4 29120597#5 29120597#6 4815046 143195216#0 143195216#1 143195216#2 289804408 1181135651#0 -28156258#9"/>
    </vehicle>
    <vehicle id="dmy24" depart="29.00">
        <route edges="-168853056#2 -168853056#1 -168853056#0 23175511 51843989 30673971 30673972 507755682 24028125 507755683 61671154 712545180#0 712545180#1 712545180#2 712545180#3 712545180#4 712545180#5 507755681 521349998#0 521349998#1 521349996 507755680#0 507755680#1 121751961#0 121751961#1 121751960#0 121751960#1 121751960#2 -28972856#5 -28972856#4 -28972856#3 -28972856#2 -28972856#1 -28972856#0 1157655580 -1180419643#1 -1180419643#0 -487445019#1 -487445019#0 28846558 961410941 487445018#0 487445018#1 487445018#2"/>
    </vehicle>
    <vehicle id="dmy25" depart="31.00">
        <route edges="10880955#0 10880955#1 10880955#2 10880955#3 10880955#4 1446901008 1112520398 -196346345 196346346 -941028476 -941028475 -888213893 -201771330 857749995 1112520397 1178361853 201771332#0 201771332#1 201771332#2 201771332#3 201771332#4 201771332#5 201771332#6 201771332#7 201771332#8 1178438900#0 1178438900#1 1421381159#0 1421381159#1 1426184493 1426184494#0 1426184494#1 1446901011 201771331#0 201771331#1 201771331#2 201771331#3 201771331#4"/>
    </vehicle>
    <vehicle id="dmy26" depart="31.00">
        <route edges="-100361362 -315517076 -48301705#1 -48301705#0 -315517077#1 -315517077#0 -315517078#2 -143311153 -143311147#1 -143311147#0 -4810351#2 -4810351#1 -4810351#0 10765121 10765119#0 10765119#1 10765119#2 10765119#3 10765119#4 10765119#5 195103641 195103648#0 195103648#1 195103648#2 195103643 195103645#0"/>
    </vehicle>
    <vehicle id="dmy27" depart="32.00">
        <route edges="4815076#3 978932717 978932720#0 978932720#1 978932721 978932716#0 978932716#1 39499930#0 39499930#1 52027376 52027375#0 52027375#1 61319717#6 61319717#7 41494279 1426184492#0 1426184492#1 -196346345 196346346 55600014 200941800 107420250 92973907 92973910 92973915 92973905 107420247 279029852 107420251 166348774 1112136865 52280850 52280853 43413482 200941799 4272939 146973208 279029850 150409784 200941798 150409783 43413477 746701838 279029851 746701839 48916236 48916235 329414038 92973912 10765114 315517081 29083379 100361376#0 100361376#1 -888357484#1 -888357484#0 -571469914#1"/>
    </vehicle>
    <vehicle id="dmy28" depart="33.00">
        <route edges="-28220781#0 -28156276#2 -28156276#1 -28156276#0 28156254#2 28156258#7 28156258#8 28156258#9 1181135651#1 1181135651#2 218041543#0 218041543#1 218041543#2 218041543#3 1181135650#0 1181135650#1 1181135650#2 10880956 986559723 986559722 10880957#0 10880957#1 1424414782 986559721#0 986559721#1 986559720 888213886 388317385#0 388317385#1 388317385#2 1177241300 10880954 10880955#0 10880955#1 10880955#2 10880955#3 10880955#4 1446901008 1112520398 -196346345 196346346 -941028476 -941028475 -888213893 -201771330 857749995 1112520397 1178361853 201771332#0 201771332#1 201771332#2 201771332#3 -27100998#1 -27101016#1 -27101016#0 -201771332#5"/>
    </vehicle>
    <vehicle id="dmy29" depart="36.00">
        <route edges="-28329154#2 -28329154#1 -28329154#0 27184836#3 27184836#4 33152135#0 33152135#1 33152135#2 33152135#3 33152135#4 -1178438383 -4815062 4815004#0 4815004#1 4815004#2 1225765326 1225765325 23781302 23781306#0 23781306#1 23781306#2 23781306#3 23781306#4 23781306#5 1424400853#0 1424400853#1 1424400853#2 1424400853#3 1424400853#4 -986559722 -986559723 -10880956 -1181135650#2 -1181135650#1 -1181135650#0 -218041543#3 -218041543#2 -218041543#1 27284886#0"/>
    </vehicle>
    <vehicle id="dmy30" depart="37.00">
        <route edges="23776089 107418678 28050851 107420256 107418679 858290131 201771330 888213893 941028475 941028476 55600014 200941800 107420250 92973907 92973910 92973915 92973905 107420247 279029852 107420251 166348774 1112136865 52280850 52280853 43413482 200941799 4272939 146973208 279029850 150409784 200941798 150409783 43413477 746701838 279029851 746701839 48916236 48916235 329414038 92973912 92973913 52031453 1064823423 30607864 328713268 329414030 487445020#0 799104277 -1291240173 -799104279 -799104271 -799104272 799104281 1313899168 1313899162 1313899167 799104285 -1312425708 -548696194 -507755997 -461330135 -51843868 -51843867 -51843866 225772540 507755683 61671154 712545180#0 712545180#1 712545180#2 712545180#3"/>
    </vehicle>
    <vehicle id="dmy31" depart="39.00">
        <route edges="-27794130#3 -27794145#1 -27794145#0 -27794182#0 27284741#2 27284741#3 143195217#0 143195217#1 143195217#2 143195216#0 143195216#1 143195216#2 289804408 1181135651#0 1181135651#1 1181135651#2 218041543#0 218041543#1 218041543#2 218041543#3 1181135650#0 1181135650#1 1181135650#2 10880956 986559723 986559722 10880957#0 10880957#1 1424414782 986559721#0 986559721#1 986559720 888213886"/>
    </vehicle>
    <vehicle id="dmy32" depart="40.00">
        <route edges="-28330045#3 -28330045#2 -28330045#1 -28330045#0 -28329404 -28329446#2 -28329446#1 -28329446#0 -201771332#4 -201771332#3 -201771332#2 -201771332#1 -201771332#0 -1178361853 857749996 888213893 941028475 941028476 55600014 196346347 201771334 196346345 -1112520398 -1446901008 -10880955#4 -10880955#3 -10880955#2 -10880955#1 -10880955#0 378946913#0 378946913#1 -388317385#2 -388317385#1 -388317385#0 -888213886 -986559720 -986559721#1 -986559721#0 -1424414782 -10880957#1 -10880957#0 -986559722 -986559723 -10880956 -1181135650#2 -1181135650#1 -28285974#3 -28285974#2 -31955679#5 -31955679#4 -31955679#3 -31955679#2 -31955679#1 -31955679#0 -23879813#1 -23879813#0 52061881#3 52061881#4 52061881#5"/>
    </vehicle>
    <vehicle id="dmy33" depart="41.00">
        <route edges="986559721#1 986559720 888213886 388317385#0 388317385#1 388317385#2 1177241300 10880954 10880955#0 10880955#1 10880955#2 10880955#3 10880955#4 1446901008 1112520398 -196346345 196346346 -941028476 -941028475 -888213893 -201771330 857749995 1112520397 1178361853 201771332#0 201771332#1 201771332#2 201771332#3 201771332#4 201771332#5 201771332#6 201771332#7 201771332#8 1178438900#0 1178438900#1 1421381159#0 1421381159#1 1426184493 1426184494#0 -28330082 -28329441#1 -28329441#0 34909816"/>
    </vehicle>
    <vehicle id="dmy34" depart="42.00">
        <route edges="10880953 201771334 196346345 -1112520398 -1446901008 -10880955#4 -10880955#3 -10880955#2 -10880955#1 -10880955#0 378946913#0 378946913#1 -388317385#2 -388317385#1 -388317385#0 -888213886 -986559720 -986559721#1 -986559721#0 -1424414782 -10880957#1 -10880957#0 -986559722 -986559723 -10880956 -1181135650#2 -1181135650#1 -1181135650#0 -218041543#3 -218041543#2 -218041543#1 -218041543#0 -1181135651#2 -1181135651#1 -1181135651#0 -289804408 -143195216#2 -143195216#1 -143195216#0 -143195217#2 -143195217#1 -143195217#0 -27284741#3 -27284741#2 27794182#0 27794145#0 27794145#1 -27794130#2 -28156321#1"/>
    </vehicle>
    <vehicle id="dmy35" depart="43.00">
        <route edges="168853056#4 168853056#5 168853056#6 23939681 194147516 23939684#0 23939684#1 23939684#2 23939684#3 23939684#4 23939684#5 23939684#6 23939684#7 23939684#8 23939684#9 23939684#10 231208844 231208845 28156258#0 28156258#1 28156258#2 28156258#3 28156258#4 28156258#5 28156258#6 28156258#7 28156258#8 28156258#9 -1181135651#0 -289804408 -143195216#2 -143195216#1 -143195216#0 -4815046 -29120597#6 -29120597#5 -29120597#4 -29120597#3 -29120597#2 -29120597#1 -29120597#0 -1181135653 -1426189317 -28156634#3 -28156634#2 -28156634#1 -28156634#0 51827270 -51827272#1 -51827272#0"/>
    </vehicle>
    <vehicle id="dmy36" depart="46.00">
        <route edges="-29120597#0 -388936247#2 -388936247#1 -388936247#0 -143311135#1 -143311135#0 -52120502#3 -52120502#2 -52120502#1 -52120502#0 -986281367#1 15778659#0 15778659#1 622345295 16796028 16796027 92973912 92973913 52031453 1064823423 30607864 328713268 329414030 28199464 842456298#0 842456298#1 842456298#2 842456298#3"/>
    </vehicle>
    <vehicle id="dmy37" depart="48.00">
        <route edges="23441732#1 23441732#2 23441732#3 23441732#4 23441732#5 23441732#6 23441732#7 23441732#8 23441732#9 23441732#10 1313899170 -507755997 -461330135 -51843868 -51843867 -51843866 225772540 507755683 61671154 712545180#0 712545180#1 712545180#2 712545180#3 712545180#4 712545180#5 507755681 521349998#0 521349998#1 521349996 507755680#0 507755680#1 121751961#0 121751961#1 121751960#0"/>
    </vehicle>
    <vehicle id="dmy38" depart="50.00">
        <route edges="799104271 799104279 1291240173 799104278 -165354654 -487445020#1 -487445020#0 -699160904 -148527695#1 -148527695#0 -1412178119 -842456299#1 -842456299#0 -388936250 -388936249 -27204832#2 -27204832#1 -27204834 27794063#3 -27794084#0 225772534#7 -27794123#2"/>
    </vehicle>
    <vehicle id="dmy39" depart="51.00">
        <route edges="23781204#2 23781204#3 23781204#4 23781204#5 23781204#6 506216995#0 506216995#1 10880954 378946913#0 378946913#1 -388317385#2 -388317385#1 -388317385#0 -888213886 -986559720 -986559721#1 -986559721#0 -1424414782 -10880957#1 -10880957#0 -986559722 -986559723 -10880956 -1181135650#2 -1181135650#1 -1181135650#0 -218041543#3 -218041543#2 -218041543#1 -218041543#0 -1181135651#2 -1181135651#1 -1181135651#0 -289804408 -143195216#2 -143195216#1 -143195216#0 -143195217#2 -143195217#1 -143195217#0 -27284741#3 -27284741#2 -27284741#1 -27284741#0 -225772534#11 -225772534#10 -225772534#9 -225772534#8 -225772534#7 -225772534#6 -225772534#5 -225772534#4 -225772534#3 27793989#0 27794027#0 27794027#1 27793989#3"/>
    </vehicle>
    <vehicle id="dmy40" depart="53.00">
        <route edges="-23781260 23781243#19 23781243#20 23781243#21 986559720 888213886 388317385#0 388317385#1 388317385#2 1177241300 10880954 10880955#0 10880955#1 10880955#2 10880955#3 10880955#4 1446901008 1112520398 -196346345 196346346 55600014 200941800 107420250 92973907 92973910 92973915 92973905 107420247 279029852 107420251 166348774 1112136865 52280850 52280853 43413482 200941799 4272939 146973208 279029850 150409784 200941798 150409783 43413477 746701838 279029851 746701839 48916236 48916235 329414038 92973912 92973913 52031453 1064823423 30607864 328713268 329414030 487445020#0 487445020#1 165354654 1448391120 1064823424 842456292 842456295 229599361 1312425706 329414032 229599371 92973906 229599368 229599367 229599369 487443912#0 487443912#1 1064823426 1064823425 1064823427 229599372 329414035 1064823430 329414034 513994436"/>
    </vehicle>
    <vehicle id="dmy41" depart="54.00">
        <route edges="-23781353 -23781204#0 61319717#3 61319717#4 61319717#5 61319717#6 61319717#7 41494279 1426184492#0 1426184492#1 -196346345 196346346 55600014 200941800 107420250 31962914 -1225765327#2 -1225765327#1 -1225765327#0 4815030 1225765325 23781302 23781306#0 23781306#1 23781306#2"/>
    </vehicle>
    <vehicle id="dmy42" depart="54.00">
        <route edges="28156322#2 -27794182#6 -27794182#5 -27794162#0 27794192#1 143195217#0 143195217#1 143195217#2 143195216#0 143195216#1 143195216#2 289804408 1181135651#0 1181135651#1 1181135651#2 218041543#0 218041543#1 218041543#2 218041543#3 1181135650#0 1181135650#1 1181135650#2 10880956 986559723 986559722 10880957#0 10880957#1 1424414782 986559721#0 986559721#1 986559720 888213886 388317385#0 388317385#1 388317385#2 1177241300 10880954 10880955#0 10880955#1 10880955#2 10880955#3 10880955#4 1446901008 1112520398 -196346345 196346346 -941028476 -941028475 -888213893 -201771330 857749995 1112520397 1178361853 201771332#0 201771332#1 201771332#2 201771332#3 201771332#4 28329446#0 28329446#1 28329446#2 28329404 28330045#0 28330045#1 28330045#2 28330045#3 28330045#4 28330045#5 79423490#0 79423490#1 79423490#2 -28329365#2 -28329365#1"/>
    </vehicle>
    <vehicle id="dmy43" depart="57.00">
        <route edges="28330045#4 28330045#5 28330044#0 28330044#1 -966565464#1 -966565464#0 -1421381159#0 -1178438900#1 -1178438900#0 -201771332#8 -201771332#7 -201771332#6 -201771332#5 -201771332#4 -201771332#3 -201771332#2 -201771332#1 -201771332#0 -1178361853 33152129 41494179#0 41494179#1 -1178695615 -1446900994 -201771335#1 -201771335#0"/>
    </vehicle>
    <vehicle id="dmy44" depart="58.00">
        <route edges="-23781243#7 -23781243#6 -23781243#5 -23781243#4 -23781243#3 -23781243#2 -23781243#1 -23781243#0 -23781239#19 -23781239#18 -23781239#17 -23781239#16 -23781239#15 -23781239#14 -23781239#13 -23781239#12 -23781239#11 -23781239#10 -23781239#9 -23781239#8 -23781239#7 -23781239#6 -23781239#5 -23781239#4"/>
    </vehicle>
    <vehicle id="dmy45" depart="59.00">
        <route edges="23781239#9 23781239#10 23820438 23825385 -23781239#6 -23781239#5 -23781239#4 -23781239#3 -23781239#2 -23781239#1 -23781239#0 -10880957#0 -986559722 -986559723 -10880956 -1181135650#2 -1181135650#1 -1181135650#0 -218041543#3 -218041543#2 -218041543#1 -218041543#0 -1181135651#2 -1181135651#1 -1181135651#0 -289804408 -143195216#2 -143195216#1 -143195216#0 -4815046 16796020#0 16796020#1 16796020#2 27284906 27284909#0 27284909#1 388936252#2 28156617#0 28156617#1 28156617#2 28156634#0"/>
    </vehicle>
    <vehicle id="dmy46" depart="59.00">
        <route edges="23781468#3 -51993874#6 -51993874#5 -51993874#4 -51993874#3 -51993874#2 -51993874#1 -51993874#0 23781266#0 23781266#1 23781306#4 23781306#5 1424400853#0 1424400853#1 1424400853#2 1424400853#3 1424400853#4 -986559722 -986559723 -10880956 -1181135650#2 -1181135650#1 -1181135650#0 -218041543#3 -218041543#2 -218041543#1 -218041543#0 -1181135651#2 -1181135651#1 -1181135651#0 -289804408 -143195216#2 -143195216#1 -143195216#0 -4815046 16796020#0 16796020#1 16796020#2 27284906 27284909#0 27284909#1 388936252#2 28156617#0 28156617#1 -27794100#2 -27794100#1 -27794100#0 -27794096#0 -27794118#3 -27794118#2 -28367289#1 -28367289#0"/>
    </vehicle>
    <vehicle id="dmy47" depart="60.00">
        <route edges="-61319706 -61319710 -28330357#3 -28330357#2 -28330357#1 -28330357#0 -1421381158#2 -1421381158#1 -1421381158#0 -201771332#8 -201771332#7 -201771332#6 -201771332#5 -201771332#4 -201771332#3 -201771332#2 -201771332#1 -201771332#0 -1178361853 857749996 888213893 941028475 941028476 55600014 200941800 107420250 92973907 92973910 92973915 92973905 107420247 279029852 107420251 166348774 1112136865 52280850 52280853 43413482 200941799 4272939 146973208 279029850 150409784 200941798 150409783 43413477 746701838 279029851 746701839 48916236 48916235 329414038 92973912 92973913 52031453 1064823423 30607864 328713268 329414030 487445020#0 487445020#1 165354654 1448391120 1064823424 842456292 842456295 229599361 1312425706 329414032 229599371 92973906 229599368 229599367 229599369 487443912#0 487443912#1 1064823426 1064823425 507756254 39218132 28972857#0 -28957261#2"/>
    </vehicle>
    <vehicle id="dmy48" depart="63.00">
        <route edges="28612389#0 28612389#1 28612389#2 28612389#3 52061881#8 52061881#9 52061881#10 52061881#11 52061881#12 1181135650#0 1181135650#1 1181135650#2 10880956 986559723 986559722 10880957#0 23781239#0 23781239#1 23781239#2 23781239#3 23781239#4 23781239#5 23781239#6 23781239#7 23781239#8 23781239#9 23781239#10 23820438"/>
    </vehicle>
    <vehicle id="dmy49" depart="64.00">
        <route edges="28329414#0 28329414#1 -28330045#1 -28330045#0 -28329404 -28329446#2 -28329446#1 -28329446#0 -201771332#4 -201771332#3 -201771332#2 -201771332#1 -201771332#0 -1178361853 857749996 888213893 941028475 941028476 55600014 196346347 201771334 196346345"/>
    </vehicle>
    <vehicle id="dmy50" depart="66.00">