<?xml version="1.0" encoding="UTF-8"?>

<!-- generated on 12/03/25 18:19:50 by Eclipse SUMO duarouter Version 1.5.0
<configuration xmlns:xsi="http://www.w3.org/2001/XMLSchema-instance" xsi:noNamespaceSchemaLocation="http://sumo.dlr.de/xsd/duarouterConfiguration.xsd">

    <input>
        <net-file value="manching_new.net.xml"/>
        <route-files value="manching_new.trips.xml"/>
    </input>

    <output>
        <output-file value="manching_new.rou.xml"/>
        <alternatives-output value="manching_new.rou.alt.xml"/>
    </output>

    <report>
        <ignore-errors value="true"/>
    </report>

</configuration>
-->

<routes xmlns:xsi="http://www.w3.org/2001/XMLSchema-instance" xsi:noNamespaceSchemaLocation="http://sumo.dlr.de/xsd/routes_file.xsd">
    <vehicle id="0" depart="0.00">
        <route edges="23781481#0 -23781481#0 -51993874#9 -51993874#8 -51993874#7 -51993874#6 -51993874#5 -51993874#4 -51993874#3 -51993874#2 -51993874#1 -51993874#0 23781266#0 23781266#1 -23781306#3 -23781306#2 -23781306#1 -23781306#0 -1225765326"/>
    </vehicle>
    <vehicle id="1" depart="3.00">
        <route edges="-31872009#0 28959965 28959964#1 -28959966#0 28959962#0 28959962#1 28959962#2 487443064 -28972857#1 -28972857#0 -39218132 -507756254 -1064823425 -1064823426 -487443912#1 -487443912#0 -229599367 -229599368 -92973906 -229599371 -1312425706 -229599361 -842456295 -842456292 -1064823424 -1448391120 -165354654 -487445020#1 -487445020#0 -329414030 -328713268 -30607864 -1064823423 -52031453 -92973913 -92973912 -329414038 -48916235 -48916236 -279029851 -746701838 -43413477 -150409783 -200941798 -150409784 -279029850 -146973208 -4272939 -43413482 -52280853 -52280850 -166348774 -107420251 -279029852 -107420247 -92973905 -92973915 -92973910 -92973907 -107420250 -200941800 -55600014 -941028476 -941028475 -201771330 857749995 1112520397 1178361853 201771332#0 201771332#1 201771332#2 201771332#3 201771332#4 201771332#5 201771332#6 201771332#7 201771332#8 1421381158#0 1421381158#1 1421381158#2 28330357#0 -28330357#0"/>
    </vehicle>
    <vehicle id="2" depart="6.00">
        <route edges="28330082 -1426184494#0 -1421381159#0 -1178438900#1 -1178438900#0 -201771332#8 -201771332#7 -201771332#6 -201771332#5 -201771332#4 -201771332#3 -201771332#2 -201771332#1 -201771332#0 -1178361853 857749996 888213893 941028476 55600014 200941800 107420250 92973907 92973910 92973915 92973905 107420247 279029852"/>
    </vehicle>
    <vehicle id="3" depart="9.00">
        <route edges="51983954#0 51983954#1 51983954#2 51983954#3 51983954#4 51983954#5 51983954#6 51983954#7 -51983955#2 -51983955#1 -51983955#0 31962969 92973915 92973905 107420247 279029852 107420251 166348774 1112136865 52280853 43413482 200941799 146973208 279029850 150409784 200941798 150409783 43413477 746701838 279029851 746701839 48916235 329414038 92973912 10765114 315517081 29083379 100361376#0 100361376#1 -315517077#1 -315517077#0 -315517078#2 -315517078#1 -315517078#0 -986281369 -986281370#6 -986281370#5 -986281370#4 -986281370#3 -986281370#2 -986281370#1 -986281370#0 -346612513#2 -346612513#1 -346612513#0 -986281372#1 -986281372#0 -986281374 -986210325#1 -986210325#0 -1446901012#0 -256342855#1 -256342855#0 -986210326 -986210328 -232636896#4 -232636896#3 -232636896#2 -232636896#1 -232636896#0"/>
    </vehicle>
    <vehicle id="4" depart="12.00">
        <route edges="-61319704 -27184639#0 -966565464#5 -966565464#4 -966565464#3 -966565464#2 -966565464#1 -966565464#0 -1421381159#0 -1178438900#1 -1178438900#0 -201771332#8 -201771332#7 -201771332#6 -201771332#5 -201771332#4 -201771332#3 -201771332#2 -201771332#1 -201771332#0 -1178361853 857749996 888213893 941028476 55600014 196346347 201771334 196346345 -1112520398 -1446901008 -10880955#3 -10880955#2 -10880955#1 -10880955#0 378946913#0 378946913#1 -388317385#2 -388317385#1 -388317385#0 -888213886 -986559720 -986559721#1 -986559721#0 -10880957#1 -10880957#0 -986559722 -986559723 -1181135650#1 -1181135650#0 -218041543#3 -218041543#2 -218041543#1 -218041543#0 -1181135651#1 -1181135651#0 -289804408 -143195216#1 -143195216#0 -143195217#2 -143195217#1 -143195217#0 -27794192#1 27794162#0 27794182#5 27794182#6 27794182#7 29985685#0 29985685#1 51876274#0 51876274#1 143195220 51876478#0 51876478#1 51876478#2 51876478#3 51876478#4 -138779518"/>
    </vehicle>
    <vehicle id="5" depart="15.00">
        <route edges="-28329441#1 28329441#1 28330082 -1426184494#0 -1421381159#0 -1178438900#1 -1178438900#0 -201771332#8 -201771332#7 -201771332#6 -201771332#5 -201771332#4 -201771332#3 -201771332#2 -201771332#1 -201771332#0 -1178361853 857749996 888213893 941028476 55600014 200941800 107420250 92973907 92973910 92973915 92973905 107420247 279029852 107420251 166348774 1112136865 52280853 43413482 200941799 146973208 279029850 150409784 200941798 150409783 43413477 746701838 279029851 746701839 48916235 329414038 92973912 92973913 52031453 1064823423 30607864 328713268 329414030 487445020#0 799104277 -1291240173 -799104279 799104281 1313899168 1313899162 1313899167 799104285 -1312425708 -548696194 -1313899170 1312425707"/>
    </vehicle>
    <vehicle id="6" depart="18.00">
        <route edges="-121751960#3 -121751960#2 -121751960#1 -121751960#0 -121751961#1 -121751961#0 -507755680#1 -507755680#0 -521349996 -521349998#1 -521349998#0 -712545180#5 -712545180#4 -712545180#3 -712545180#2 -712545180#1 -712545180#0 -61671154 225772541 -30673972 -51843989 168853058 168853059#1 168853056#0 168853056#1 168853056#2 168853056#3 168853056#4 168853056#5 168853056#6 194147516 23939684#1 23939684#2 23939684#3 23939684#4 23939684#5 23939684#6 23939684#7 23939684#8 23939684#9 23939684#10 28156258#0 28156258#1 28156258#2 28156258#3 28156258#4 28156258#5 28156258#6 28156258#7 28156258#8 28156258#9 1181135651#1 1181135651#2 218041543#1 -28220784#11 -28220784#10"/>
    </vehicle>
    <vehicle id="7" depart="21.00">
        <route edges="25152774#0 51877631#0 51877631#1 -121751960#4 -121751960#3 -121751960#2 -121751960#1 -121751960#0 -121751961#1 -121751961#0 -507755680#1 -507755680#0 -521349996 -521349998#1 -521349998#0 -712545180#5 -712545180#4 -712545180#3 -712545180#2 -712545180#1 -712545180#0 -61671154 225772541 -30673972 -51843989 -168853057 -168172758#2 -168172758#1 -168172758#0 -4819336 -48444993 -243554732 -168853055#1 168853055#1"/>
    </vehicle>
    <vehicle id="8" depart="24.00">
        <route edges="-28329472#3 -28329472#2 -28329446#0 -201771332#4 -201771332#3 -201771332#2 -201771332#1 -201771332#0 -1178361853 857749996 888213893 941028476 55600014 196346347 201771334 196346345 -1112520398 -1446901008 -10880955#3 -10880955#2 -10880955#1 -10880955#0 378946913#0 378946913#1 -388317385#2 -388317385#1 -388317385#0 -888213886 -986559720 -986559721#1 -986559721#0 -10880957#1 -10880957#0 -986559722 -986559723 -1181135650#1 -1181135650#0 -218041543#3 -218041543#2 -218041543#1 -218041543#0 -1181135651#1 -1181135651#0 -289804408 -143195216#1 -143195216#0 -4815046 16796020#0 16796020#1 16796020#2 16796020#3 234900592"/>
    </vehicle>
    <vehicle id="9" depart="27.00">
        <route edges="35417466#0 -35417466#0 -35417465#1 -35417465#0 4819336 168172758#0 168172758#1 168172758#2 168853057 51843989 30673971 507755682 461330137 51843866 461330135 507755997 548696194 1312425708 799104284 1313899165 799104286 1313899166 799104280 799104272 1291240173 799104278 -165354654 -487445020#1 -487445020#0 -329414030 -328713268 -30607864 -1064823423 -52031453 16796026 -16796028 342491459 622345296#0 622345296#1 -342491456#0 -986281368 -4273102 -1421381161 -100361362 -315517076 -48301705#1 -48301705#0 -315517077#1 -315517077#0 -315517078#2 -143311153 -143311147#1 -143311147#0 -4810351#2 -4810351#1 -4810351#0 10765119#1 -10765119#1"/>
    </vehicle>
    <vehicle id="10" depart="30.00">
        <route edges="342491459 26084087#0 26084087#1 986281367#0 986281367#1 52120502#0 52120502#1 52120502#2 52120502#3 143311135#0 143311135#1 388936247#0 388936247#1 388936247#2 29120597#0 29120597#1 29120597#2 29120597#3 29120597#4 29120597#5 29120597#6 4815046 143195216#0 143195216#1 143195216#2 1181135651#0 -28156258#9 -28156258#8 28612389#0 -28220781#5 -28220781#4 -28220781#3 -28220781#2 -28220785 28220784#5"/>
    </vehicle>
    <vehicle id="11" depart="33.00">
        <route edges="-48916235 -48916236 746701839 48916235 329414038 92973912 92973913 16796026 -16796028 342491459 26084087#0 26084087#1 986281367#0 986281367#1 52120502#0 52120502#1 52120502#2 52120502#3 143311135#0 143311135#1 388936247#0 388936247#1 388936247#2 29120597#0 29120597#1 29120597#2 29120597#3 29120597#4 29120597#5 29120597#6 4815046 143195216#0 143195216#1 143195216#2 1181135651#0 1181135651#1 1181135651#2 218041543#1 218041543#2 218041543#3 27284765#0 27284765#1 27284765#2 -27284765#2"/>
    </vehicle>
    <vehicle id="12" depart="36.00">
        <route edges="799104281 1313899168 799104266 799104268 -842456295 -842456292 -1064823424 -1448391120 -165354654 -487445020#1 -487445020#0 -329414030 -328713268 -30607864 -1064823423 -52031453 -92973913 -92973912 -329414038 -48916235 -48916236 -279029851 -746701838 -43413477 -150409783 -200941798 -150409784 -279029850 -146973208 -4272939 -43413482 -52280853 -52280850 -166348774 -107420251 -279029852 -107420247 -92973905 -92973915 -92973910 -92973907 31962914 -1225765327#2 -1225765327#1 -1225765327#0 4815030 -1225765326 -4815004#2 -4815004#1 -4815004#0 4815062 1178438383 -33152135#4 -33152135#3 -33152135#2 -33152135#1 504602670#0 504602676 -504602676"/>
    </vehicle>
    <vehicle id="13" depart="39.00">
        <route edges="-23292486#0 506198148#1 -506216505 -400955170 -113212961 -746482266 -746482271 -746482265#1 -746482265#0 -53627656 -746482264#1 -746482264#0 -1424400858 -1186879916 -201771329 -53627657 109586287 200936417 109586279 159086916 34909810 23776085 107418679 858290131 201771330 888213893 941028476 55600014 196346347 201771334 196346345 -1426184492#1 -1426184492#0 -61319717#7 -61319717#6 -61319717#5 -61319717#4 -61319717#3 23781204#0 -23781204#0"/>
    </vehicle>
    <vehicle id="14" depart="42.00">
        <route edges="4815046 143195216#0 143195216#1 143195216#2 1181135651#0 1181135651#1 1181135651#2 218041543#1 218041543#2 218041543#3 1181135650#0 1181135650#1 1181135650#2 986559722 10880957#0 10880957#1 1424414782 986559721#1 -23781243#21 -23781243#20 23781243#20"/>
    </vehicle>
    <vehicle id="15" depart="45.00">
        <route edges="34909808 -34909808 28575478"/>
    </vehicle>
    <vehicle id="16" depart="48.00">
        <route edges="143195221 -51876274#0 -29985685#1 -29985685#0 -27794182#7 -27794182#6 -27794182#5 -27794182#4 -27794182#3 -27794130#3 -27794130#2 -27794130#1 -27794130#0 -27794001#1 -27794001#0 -225772534#8 -225772534#7 27794084#0 -27794063#3 27204834 27204832#1 27204832#2 388936249 388936250 842456299#0 842456299#1 1312425705 16796022 699160904 28199464 842456298#0 842456298#1 842456298#2 842456298#3 842456298#4 -39354755#1 -39354755#0 28372001#0 28372001#1 28372001#2 378946904 555680415#0 555680415#1 753055007 378946905#0 378946905#1 378946905#2 378946905#3 378946905#4 378946905#5 378948975 378948976#0 378948976#1 378948976#2 378948976#3 888357492"/>
    </vehicle>
    <vehicle id="17" depart="51.00">
        <route edges="-51983955#2 -51983955#1 -51983955#0 31962969 -92973910 -92973907 31962914 -1225765327#2 -1225765327#1 -1225765327#0 4815030 -1225765326 -4815004#2 -4815004#1 -4815004#0 4815062 1178438383 -33152135#4 -33152135#3 -33152135#2 -33152135#1 -33152135#0 -183473383#1 183473383#1"/>
    </vehicle>
    <vehicle id="18" depart="54.00">
        <route edges="39499930#1 52027375#1 61319717#6 61319717#7 41494279 1426184492#1 -1112520398 -1446901008 -10880955#3 -10880955#2 -10880955#1 -10880955#0 378946913#0 378946913#1 -388317385#2 -388317385#1 -388317385#0 -888213886 -986559720 -23781243#21 -23781243#20 -23781243#19 -23781243#18 -23781243#17 -23781243#16 -23781243#15 23781408#0 23781408#1 23781408#2"/>
    </vehicle>
    <vehicle id="19" depart="57.00">
        <route edges="506198148#1 -506216505 -400955170 -113212961 -746482266 -746482271 -746482265#1 -746482265#0 -53627656 -746482264#1 -746482264#0 -1424400858 -1186879916 -201771329 -53627657 109586287 200936417 109586279 159086916 34909810 23776085 107418679 858290131 201771330 888213893 941028476 55600014 200941800 107420250 92973907 92973910 92973915 92973905 107420247 279029852 107420251 166348774 1112136865 52280853 43413482 200941799 146973208 279029850 150409784 200941798 150409783 43413477 746701838 279029851 746701839 48916235 329414038 92973912 92973913 52031453 1064823423 30607864 328713268 329414030 487445020#0 487445020#1 165354654 1448391120 1064823424 842456292 842456295 229599361 1312425706 329414032 92973906 229599368 229599367 229599369"/>
    </vehicle>
    <vehicle id="20" depart="60.00">
        <route edges="28156258#9 -1181135651#0 -289804408 -143195216#1 -143195216#0 -4815046 -29120597#6 -29120597#5 -29120597#4 -29120597#3 -29120597#2 -29120597#1 -29120597#0 -388936247#2 -388936247#1 -388936247#0 -143311135#1 -143311135#0 -52120502#3 -52120502#2 -52120502#1 -52120502#0 -986281367#1 -986281367#0 -342491456#1 -342491456#0 -986281368 -4273102 -1421381161 -100361362 -315517076 -48301705#1 -48301705#0 -315517077#1 -315517077#0 -315517078#2 -315517078#1 -315517078#0 -986281369 -986281370#6 -986281370#5 -986281370#4 -986281370#3 -986281370#2 -986281370#1 150594426#0 150594426#1 -150593774#6 -150593774#5 -150593774#4 -150593772#1"/>
    </vehicle>
    <vehicle id="21" depart="63.00">
        <route edges="-28330269#2 -23781251#6 -23781251#5 -23781325#3 -23781325#2 -23781325#1 -23781325#0 23781204#4 23781204#5 23781204#6 506216995#0 506216995#1 10880954 378946913#0 378946913#1 -388317385#2 -388317385#1 -388317385#0 -888213886 -986559720 -986559721#1 -986559721#0 -10880957#1 -10880957#0 -986559722 -986559723 -1181135650#1 -1181135650#0 -218041543#3 -218041543#2 -218041543#1 -218041543#0 -1181135651#1 -28156258#9 -28156258#8 -28156258#7 -28156258#6 -28156258#5 -28156258#4 -28156258#3 -28156258#2 -28156258#1 -28156258#0 -231208845 -23939684#9 -23939684#8 -23939684#7 -23939684#6 -23939684#5 -23939684#4 -23939684#3 -23939684#2 -23939684#1 -23939684#0 -23939681 -168853056#5 -168853056#4 -168853056#3 -168853056#2 -168853056#1 -168853056#0 23175511 -168853057 -168172758#2 -168172758#1 -168172758#0 -4819336 35417465#0 35417465#1 35417466#0 -35417466#0"/>
    </vehicle>
    <vehicle id="22" depart="66.00">
        <route edges="-201771331#2 -201771331#1 -201771331#0 -1446901011 -1426184494#1 -1426184494#0 -1421381159#0 -1178438900#1 -1178438900#0 -201771332#8 -201771332#7 -201771332#6 -201771332#5 -201771332#4 -201771332#3 -201771332#2 -201771332#1 -201771332#0 -1178361853 857749996 888213893 941028476 55600014 196346347 201771334 196346345 -1112520398 -1446901008 -10880955#3 -10880955#2 -10880955#1 -10880955#0 378946913#0 378946913#1 -388317385#2 -388317385#1 -388317385#0 -888213886 -986559720 -986559721#1 -986559721#0 -10880957#1 -10880957#0 -986559722 -986559723 -1181135650#1 -1181135650#0 -52061881#12 -52061881#11 -52061881#10 -52061881#9 -52061881#8 -52061881#7 -28612156#4 -28612156#3 -28612156#2"/>
    </vehicle>
    <vehicle id="23" depart="69.00">
        <route edges="-234651131#0 -1424400854#1 -1424400854#0 -51983955#2 -51983955#1 -51983955#0 31962969 92973915 92973905 107420247 279029852 107420251 166348774 1112136865 52280853 43413482 200941799 146973208 279029850 150409784 200941798 150409783 43413477 746701838 279029851 746701839 48916235 329414038 -329414038"/>
    </vehicle>
    <vehicle id="24" depart="72.00">
        <route edges="23781408#5 23781408#6 23781408#7 23781408#8 23781408#9 23781408#10 -23781239#5 -23781239#4 -23781239#3 -23781239#2 -23781239#1 -23781239#0 -10880957#0 -986559722 -986559723 -1181135650#1 -1181135650#0 -218041543#3 -218041543#2 -218041543#1 -218041543#0 -1181135651#1 -28156258#9 -28156258#8 -28156258#7 -28156258#6 -28156258#5 -28156258#4 -28156258#3 -28156258#2 -28156258#1 -28156258#0 -231208845 -23939684#9 -23939684#8 -23939684#7 -23939684#6 -23939684#5 -23939684#4 -23939684#3 -23939684#2 -23939684#1 -23939684#0 -23939681 -168853056#5 -168853056#4 -168853056#3 -168853056#2 -168853056#1 -168853056#0 23175511 51843989 30673971 507755682 24028125 507755683 61671154 712545180#0 712545180#1 712545180#2 712545180#3 712545180#4 712545180#5 507755681 521349998#1 521349996 507755680#0 507755680#1 121751961#0 121751961#1 121751960#0 121751960#1 121751960#2 -28972856#5 -28972856#4 -51877666"/>
    </vehicle>
    <vehicle id="25" depart="75.00">
        <route edges="-51877103#3 51877103#3 -712545180#3 -712545180#2 -712545180#1 -712545180#0 -61671154 225772541 -30673972 -51843989 168853058 168853059#1 168853056#0 168853056#1 168853056#2 168853056#3 168853056#4 168853056#5 168853056#6 194147516 23939684#1 23939684#2 23939684#3 23939684#4 23939684#5 23939684#6 23939684#7 23939684#8 23939684#9 23939684#10 28156258#0 28156258#1 28156258#2 28156258#3 28156258#4 28156258#5 28156258#6 28156258#7 28156258#8 28156258#9 1181135651#1 1181135651#2 218041543#1 218041543#2 218041543#3 27284765#0 27284765#1 -28286249#4 -28286249#3 -28286251#1 -28286251#0"/>
    </vehicle>
    <vehicle id="26" depart="78.00">
        <route edges="-29120597#4 29120597#4 29120597#5 29120597#6 4815046 -143195217#2 -143195217#1 -143195217#0 -27284741#3 -27284741#2 -27284741#1 -27284741#0 -225772534#11 -225772534#10 -225772534#9 -225772534#8 -225772534#7 -225772534#6 -225772534#5 -225772534#4 -225772534#3 -225772534#2 -225772534#1 -225772534#0 225772537#0 225772537#1 -345319794 225772538 -548696194 -507755997 -461330135 -51843868 225772540 507755683 61671154 712545180#0 712545180#1 712545180#2 712545180#3 712545180#4 712545180#5 507755681 521349998#1 37838208 37838206#0 712545175#0 -712545176#1 712545177"/>
    </vehicle>
    <vehicle id="27" depart="81.00">
        <route edges="23939684#7 23939684#8 23939684#9 23939684#10 28156258#0 28156258#1 28156258#2 28156258#3 28156258#4 28156258#5 28156258#6 28156258#7 28156258#8 28156258#9 1181135651#1 1181135651#2 218041543#1 218041543#2 218041543#3 1181135650#0 1181135650#1 1181135650#2 986559722 -1424400853#4 -1424400853#3 -1424400853#2 -1424400853#1 -1424400853#0 -23781306#5 -23781306#4 -23781266#1 -23781266#0 23781266#0"/>
    </vehicle>
    <vehicle id="28" depart="84.00">
        <route edges="-27794063#1 27794063#1 27794063#2 27204834 27204832#1 27204832#2 388936249 388936250 842456299#0 842456299#1 1312425705 16796022 699160904 28199464 842456298#0 842456298#1 842456298#2 842456298#3 842456298#4 -39354755#1 -39354755#0 28372001#0 28372001#1"/>
    </vehicle>
    <vehicle id="29" depart="87.00">
        <route edges="-27284886#2 -28156030#1 -28156030#0 -27284765#2 -27284765#1 -27284765#0 1181135650#0 1181135650#1 1181135650#2 986559722 10880957#0 23781239#0 23781239#1 23781239#2 23781239#3 52015614#0 52015614#1 52015614#2 52015614#3 -52015614#3 -52015614#2 -52015614#1"/>
    </vehicle>
    <vehicle id="30" depart="90.00">
        <route edges="969536039 296922313#3 170350814#3 170350814#4 746482268#1 200943324#1 200943324#2 -746482271 -746482265#1 -746482265#0 -53627656 -746482264#1 -746482264#0 -1424400858 -1186879916 -201771329 -53627657 -200936413 -72782142 -844989745 -109586286 -4268910 -72782134 -266607775 -266607788 -1182657382 -159086915 -159086914 -266607774 -266607777 -266607780 -266607784#1 266607784#1 266607780"/>
    </vehicle>
    <vehicle id="31" depart="93.00">
        <route edges="16796020#4 -16796020#4 -16796020#3 -16796020#2 -16796020#1 -16796020#0 4815046 143195216#0 143195216#1 143195216#2 1181135651#0 -28156258#9 -28156258#8 -28156258#7 -28156254#2 28156254#2"/>
    </vehicle>
    <vehicle id="33" depart="99.00">
        <route edges="-28330361#0 -61319706 -28330357#3 -28330357#2 -28330357#1 -28330357#0 -28329426#2 -28329426#1 -28329426#0 -1446901009 -1426184494#1 -1426184494#0 -1421381159#0"/>
    </vehicle>
    <vehicle id="34" depart="102.00">
        <route edges="-388936251#1 388936251#1 388936251#2 507755271 388936250 842456299#0 842456299#1 1312425705 16796022 699160904 -329414030 -328713268 -30607864 -1064823423 -52031453 -92973913 10765114 315517081 29083379 -29083379 26157277 315517080#0 -315517080#0"/>
    </vehicle>
    <vehicle id="35" depart="105.00">
        <route edges="-28286112#1 -28286112#0 28286249#1 28286249#2 28286249#3 28286249#4 -27284765#1 -27284765#0 1181135650#0 1181135650#1 1181135650#2 986559722 10880957#0 10880957#1 1424414782 986559721#1 986559720 888213886 388317385#0 388317385#1 388317385#2 1177241300 10880954 10880955#0 10880955#1 10880955#2 10880955#3 10880955#4 1112520398 -196346345 196346346 -941028476 -941028475 -201771330 857749995 1112520397 1178361853 201771332#0 201771332#1 201771332#2 201771332#3 201771332#4 201771332#5 201771332#6 201771332#7 201771332#8 1178438900#0 1178438900#1 1421381159#0 1421381159#1 1426184494#1 1446901011 201771331#0 201771331#1 201771331#2 201771331#3 201771331#4 89479606#1 89479606#2 89479606#3 89479606#4 89479606#5 89479606#6 200941802 201771329 1186879916 1424400858 746482264#0 746482264#1 746482264#2 4815059 200943321 -746482268#2 746482268#2"/>
    </vehicle>
    <vehicle id="36" depart="108.00">
        <route edges="51874326#3 -121751960#1 -121751960#0 -121751961#1 -121751961#0 -507755680#1 -507755680#0 -521349996 -521349998#1 -521349998#0 -712545180#5 -712545180#4 -712545180#3 -712545180#2 -712545180#1 -712545180#0 -61671154 225772541 -30673972 -51843989 168853058 168853059#1 168853056#0 168853056#1 168853056#2 168853056#3 168853056#4 168853056#5 168853056#6 194147516 -413002074#2 -413002074#1 -413002074#0"/>
    </vehicle>
    <vehicle id="37" depart="111.00">
        <route edges="265261315#0 265261315#1 265261312#1 -1308396991#0 -71044347 -329414034 -1064823430 -329414035 -229599372 -1064823427 531088969#0 531088969#1 531088969#2 531088969#3 525132615#0 -525132615#0"/>
    </vehicle>
    <vehicle id="38" depart="114.00">
        <route edges="52062130#2 23939684#4 23939684#5 23939684#6 23939684#7 23939684#8 23939684#9 23939684#10 28156258#0 28156258#1 28156258#2 28156258#3 28156258#4 28156258#5 28156258#6 28156258#7 28156258#8 28156258#9 1181135651#1 1181135651#2 218041543#1 218041543#2 218041543#3 1181135650#0 1181135650#1 1181135650#2 986559722 10880957#0 23781239#0 23781239#1 23781239#2 23781239#3 23781239#4 23781239#5 23781239#6 23781239#7 23781239#8 23781239#9 23781239#10 23781239#11 23781239#12 23781239#13 23781239#14 23781239#15 23781239#16 23781239#17 23781239#18 23781239#19 23781239#20 23781239#21 191398113#0 -200947899#1 978773120#1 -978773120#1"/>
    </vehicle>
    <vehicle id="39" depart="117.00">
        <route edges="-29083279#1 -29083279#0 52061881#6 52061881#7 -28612389#3 -28612389#2 -28612389#1 -28612389#0 28156258#8 28156258#9 -1181135651#0 -289804408 -143195216#1 -143195216#0 -4815046 16796020#0 16796020#1 16796020#2 16796020#3 16796020#4 16796020#5 16796020#6 16796020#7 16796020#8 16796020#9 16796020#10 16796020#11 388936251#0 388936251#1 388936251#2 507755271 388936250 842456299#0 842456299#1 1312425705 16796022 699160904 487445020#0 487445020#1 165354654 1448391120 1064823424 842456292 842456295 229599361 1312425706 329414032 92973906 229599368 229599367 229599369 487443912#1 1064823426 1064823425 507756254 39218132 28972857#0 28972857#1 -487443064 -28959962#2 -28959962#1 -28959962#0"/>
    </vehicle>
    <vehicle id="40" depart="120.00">
        <route edges="168811987#2 168811987#3 23939684#9 23939684#10 28156258#0 28156258#1 28156258#2 28156258#3 28156258#4 28156258#5 28156258#6 28156258#7 28156258#8 28156258#9 -1181135651#0 -289804408 -143195216#1 -143195216#0 -143195217#2 -143195217#1 -143195217#0 -27794192#1 -27794192#0 29985684#0 -29985684#0"/>
    </vehicle>
    <vehicle id="42" depart="126.00">
        <route edges="-52061881#9 52061881#9 52061881#10 52061881#11 52061881#12 1181135650#0 1181135650#1 1181135650#2 986559722 10880957#0 10880957#1 1424414782 986559721#1 986559720 888213886 388317385#0 388317385#1 388317385#2 1177241300 10880954 10880955#0 10880955#1 10880955#2 10880955#3 10880955#4 1112520398 -196346345 196346346 -941028476 -941028475 -201771330 857749995 1112520397 1178361853 201771332#0 201771332#1 201771332#2 201771332#3 201771332#4 201771332#5 201771332#6 201771332#7 201771332#8 1178438900#0 1178438900#1 1421381159#0 1421381159#1 -28330082 -28329441#1 -28330044#7"/>
    </vehicle>
    <vehicle id="43" depart="129.00">
        <route edges="986281372#1 346612513#0 346612513#1 346612513#2 986281370#0 986281370#1 986281370#2 986281370#3 986281370#4 986281370#5 986281370#6 986281369 315517078#0 315517078#1 315517078#2 315517077#0 315517077#1 -100361376#1 -100361376#0 -29083379 26157277 842456301 1064823423 30607864 328713268 329414030 487445020#0 799104277 -1291240173 -799104279 799104281 1313899168 1313899162 1313899167 799104285 -1312425708 -548696194 -507755997 -461330135 -51843868 225772540 507755683 61671154 51876940#0 -788786303 -886648752#0 -138779520 -51876874#0 -51876479#0 -51876480#1 138779518"/>
    </vehicle>
    <vehicle id="44" depart="132.00">
        <route edges="-229599372 -1064823427 -1064823425 -1064823426 -487443912#1 -487443912#0 -229599367 -229599368 -92973906 -229599371 -1312425706 -229599361 -842456295 -842456292 -1064823424 -1448391120 -165354654 -487445020#1 -487445020#0 -329414030 -328713268 -30607864 -1064823423 -52031453 16796026 -16796028 342491459 622345296#0 622345296#1 -342491456#0 -986281368 -4273102 -1421381161 -100361362 -315517076 -48301705#1 -48301705#0 -315517077#1 -315517077#0 -315517078#2 -315517078#1 -315517078#0 -986281369 -986281370#6 -986281370#5 -986281370#4 -986281370#3 -986281370#2 -986281370#1 150594426#0 150594426#1 -150593774#6 -150593774#5 -150593774#4 -150593774#3"/>
    </vehicle>
    <vehicle id="45" depart="135.00">
        <route edges="-23781239#21 -23781239#20 -23781239#19 -23781239#18 -23781239#17 -23781239#16 -23781239#15 -23781239#14 -23781239#13 -23781239#12 -23781239#11 -23781239#10 -23781239#9 -23781239#8 -23781239#7 -23781239#6 -23781239#5 -23781239#4 -23781239#3 -23781239#2 -23781239#1 -23781239#0 10880957#1 1424414782 986559721#1 986559720 888213886 388317385#0 388317385#1 388317385#2 1177241300 10880954 10880955#0 10880955#1 10880955#2 10880955#3 10880955#4 1112520398 -1426184492#1 -1426184492#0 -61319717#7 -61319717#6 -61319717#5 -61319717#4 -61319717#3 -52026758#1 -52027378#1 23820310#0 23820310#1 23820310#2 -52027542 23820645#1"/>
    </vehicle>
    <vehicle id="46" depart="138.00">
        <route edges="31955679#2 31955679#3 31955679#4 31955679#5 28285974#2 28285974#3 -1181135650#0 -218041543#3 -218041543#2 -218041543#1 -218041543#0 -1181135651#1 -1181135651#0 -289804408 -143195216#1 -143195216#0 -4815046 -29120597#6 -29120597#5 -29120597#4 -29120597#3 -29120597#2 -29120597#1 -29120597#0 -388936247#2 -388936247#1 -388936247#0 -143311135#1 -143311135#0 -52120502#3 -52120502#2 -52120502#1 -52120502#0 -986281367#1 -986281367#0 -342491456#1 -342491456#0 -986281368 -4273102 -1421381161 -100361362 -315517076 -48301705#1 -48301705#0 -888357484#1 -888357484#0 -571469914#1 -571469914#0 -82935733#3 -82935733#2 -82935733#1 -82935733#0 -39354755#1 -39354755#0 28372001#0 28372001#1 28372001#2 378946904 555680415#0 555680415#1 753055007 -753055007"/>
    </vehicle>
    <vehicle id="47" depart="141.00">
        <route edges="-16796020#8 16796020#8 16796020#9 16796020#10 16796020#11 388936251#0 388936251#1 388936251#2 507755271 388936250 842456299#0 842456299#1 1312425705 16796022 699160904 -329414030 -328713268 -30607864 -1064823423 -52031453 -92973913 -92973912 -329414038 -48916235 -48916236 -279029851 -746701838 -43413477 -150409783 -200941798 -150409784 -279029850 -146973208 -4272939 -43413482 -52280853 -52280850 -166348774 -107420251 -279029852 -107420247 -92973905 -92973915 -92973910 -92973907 -107420250 10880953 201771334 196346345 -1426184492#1 -1426184492#0 -61319717#7 -61319717#6 -52027375#1 -52027375#0"/>
    </vehicle>
    <vehicle id="48" depart="144.00">
        <route edges="986281370#3 -986281370#3 -986281370#2 -986281370#1 150594426#0 150594426#1 150594427#0 150594427#1 150594429#0 150594429#1"/>
    </vehicle>
    <vehicle id="49" depart="147.00">
        <route edges="857749973#1 -531088969#2 -531088969#1 -531088969#0 -1064823425 -1064823426 -487443912#1 -487443912#0 -229599367 487475888 1448505991 23441731#0 23441731#1 23441731#2 51874326#0 51874326#1"/>
    </vehicle>
    <vehicle id="50" depart="150.00">
        <route edges="-10880955#2 10880955#2 10880955#3 10880955#4 1112520398 -196346345 196346346 -941028476 -941028475 -201771330 857749995 1112520397 1178361853 201771332#0 201771332#1 201771332#2 201771332#3 201771332#4 201771332#5 201771332#6 201771332#7 201771332#8 1421381158#0 1421381158#1 1421381158#2 28330357#0 28330357#1"/>
    </vehicle>
    <vehicle id="51" depart="153.00">
        <route edges="27794100#1 27794100#2 -28156617#1 -28156617#0 -388936252#2 -388936252#1 -388936252#0 -16796020#4 -16796020#3 -16796020#2 -16796020#1 -16796020#0 16796020#0 16796020#1"/>
    </vehicle>
    <vehicle id="52" depart="156.00">
        <route edges="-29120597#3 -29120597#2 -29120597#1 -29120597#0 -388936247#2 -388936247#1 -388936247#0 -143311135#1 -143311135#0 -52120502#3 -52120502#2 -52120502#1 -52120502#0 -986281367#1 15778659#0 15778659#1 622345295 16796028 16796027 -329414038 -48916235 -48916236 -279029851 -746701838 -43413477 -150409783 -200941798 -150409784 -279029850 -146973208 -4272939 -43413482 -52280853 -52280850 -166348774 -107420251 -279029852 -107420247 -92973905 -92973915 -92973910 -92973907 -107420250 -200941800 -55600014 -941028476 -941028475 -201771330 -858290131 -107418679 -107420256 -34909810 4360014 34909808 72782157 -72782134 -266607775 -266607788 266607788"/>
    </vehicle>
    <vehicle id="53" depart="159.00">