<?xml version="1.0" encoding="UTF-8"?>
<!-- generated on 2025-12-03 18:19:43.009954 by randomTrips.py v1_5_0+0000-3a3be608d2
  options: -n manching_new.net.xml -o manching_new.trips.xml <doubleminus>seed 42 <doubleminus>period 3
-->
<routes xmlns:xsi="http://www.w3.org/2001/XMLSchema-instance" xsi:noNamespaceSchemaLocation="http://sumo.dlr.de/xsd/routes_file.xsd">
    <trip id="0" depart="0.00" from="23781481#0" to="-1225765326"/>
    <trip id="1" depart="3.00" from="-31872009#0" to="-28330357#0"/>
    <trip id="2" depart="6.00" from="28330082" to="279029852"/>
    <trip id="3" depart="9.00" from="51983954#0" to="-232636896#0"/>
    <trip id="4" depart="12.00" from="-61319704" to="-138779518"/>
    <trip id="5" depart="15.00" from="-28329441#1" to="1312425707"/>
    <trip id="6" depart="18.00" from="-121751960#3" to="-28220784#10"/>
    <trip id="7" depart="21.00" from="25152774#0" to="168853055#1"/>
    <trip id="8" depart="24.00" from="-28329472#3" to="234900592"/>
    <trip id="9" depart="27.00" from="35417466#0" to="-10765119#1"/>
    <trip id="10" depart="30.00" from="342491459" to="28220784#5"/>
    <trip id="11" depart="33.00" from="-48916235" to="-27284765#2"/>
    <trip id="12" depart="36.00" from="799104281" to="-504602676"/>
    <trip id="13" depart="39.00" from="-23292486#0" to="-23781204#0"/>
    <trip id="14" depart="42.00" from="4815046" to="23781243#20"/>
    <trip id="15" depart="45.00" from="34909808" to="28575478"/>
    <trip id="16" depart="48.00" from="143195221" to="888357492"/>
    <trip id="17" depart="51.00" from="-51983955#2" to="183473383#1"/>
    <trip id="18" depart="54.00" from="39499930#1" to="23781408#2"/>
    <trip id="19" depart="57.00" from="506198148#1" to="229599369"/>
    <trip id="20" depart="60.00" from="28156258#9" to="-150593772#1"/>
    <trip id="21" depart="63.00" from="-28330269#2" to="-35417466#0"/>
    <trip id="22" depart="66.00" from="-201771331#2" to="-28612156#2"/>
    <trip id="23" depart="69.00" from="-234651131#0" to="-329414038"/>
    <trip id="24" depart="72.00" from="23781408#5" to="-51877666"/>
    <trip id="25" depart="75.00" from="-51877103#3" to="-28286251#0"/>
    <trip id="26" depart="78.00" from="-29120597#4" to="712545177"/>
    <trip id="27" depart="81.00" from="23939684#7" to="23781266#0"/>
    <trip id="28" depart="84.00" from="-27794063#1" to="28372001#1"/>
    <trip id="29" depart="87.00" from="-27284886#2" to="-52015614#1"/>
    <trip id="30" depart="90.00" from="969536039" to="266607780"/>
    <trip id="31" depart="93.00" from="16796020#4" to="28156254#2"/>
    <trip id="32" depart="96.00" from="45372959" to="31955679#3"/>
    <trip id="33" depart="99.00" from="-28330361#0" to="-1421381159#0"/>
    <trip id="34" depart="102.00" from="-388936251#1" to="-315517080#0"/>
    <trip id="35" depart="105.00" from="-28286112#1" to="746482268#2"/>
    <trip id="36" depart="108.00" from="51874326#3" to="-413002074#0"/>
    <trip id="37" depart="111.00" from="265261315#0" to="-525132615#0"/>
    <trip id="38" depart="114.00" from="52062130#2" to="-978773120#1"/>
    <trip id="39" depart="117.00" from="-29083279#1" to="-28959962#0"/>
    <trip id="40" depart="120.00" from="168811987#2" to="-29985684#0"/>
    <trip id="41" depart="123.00" from="201771332#8" to="52027992"/>
    <trip id="42" depart="126.00" from="-52061881#9" to="-28330044#7"/>
    <trip id="43" depart="129.00" from="986281372#1" to="138779518"/>
    <trip id="44" depart="132.00" from="-229599372" to="-150593774#3"/>
    <trip id="45" depart="135.00" from="-23781239#21" to="23820645#1"/>
    <trip id="46" depart="138.00" from="31955679#2" to="-753055007"/>
    <trip id="47" depart="141.00" from="-16796020#8" to="-52027375#0"/>
    <trip id="48" depart="144.00" from="986281370#3" to="150594429#1"/>
    <trip id="49" depart="147.00" from="857749973#1" to="51874326#1"/>
    <trip id="50" depart="150.00" from="-10880955#2" to="28330357#1"/>
    <trip id="51" depart="153.00" from="27794100#1" to="16796020#1"/>
    <trip id="52" depart="156.00" from="-29120597#3" to="266607788"/>
    <trip id="53" depart="159.00" from="-23781239#9" to="-842377674#0"/>
    <trip id="54" depart="162.00" from="-842377674#1" to="799104283"/>
    <trip id="55" depart="165.00" from="51874326#1" to="-29985685#1"/>
    <trip id="56" depart="168.00" from="10880955#2" to="-279029851"/>
    <trip id="57" depart="171.00" from="52061881#8" to="51876874#0"/>
    <trip id="58" depart="174.00" from="-356551682#2" to="26599502"/>
    <trip id="59" depart="177.00" from="23781204#4" to="-27204832#1"/>
    <trip id="60" depart="180.00" from="28959959#3" to="16796020#8"/>
    <trip id="61" depart="183.00" from="296922313#0" to="150594768#2"/>
    <trip id="62" depart="186.00" from="-100361376#0" to="-4815006"/>
    <trip id="63" depart="189.00" from="-1181135647" to="61319718#0"/>
    <trip id="64" depart="192.00" from="51875925#1" to="4815016#2"/>
    <trip id="65" depart="195.00" from="-37838208" to="-16796020#4"/>
    <trip id="66" depart="198.00" from="51875921#0" to="77056959#4"/>
    <trip id="67" depart="201.00" from="-220735960" to="114374865#2"/>
    <trip id="68" depart="204.00" from="-168853056#3" to="29120597#2"/>
    <trip id="69" depart="207.00" from="28959969#1" to="-23781481#0"/>
    <trip id="70" depart="210.00" from="-941028476" to="174171267"/>
    <trip id="71" depart="213.00" from="-29083279#1" to="51877101#1"/>
    <trip id="72" depart="216.00" from="-61319717#0" to="-28329365#2"/>
    <trip id="73" depart="219.00" from="1446901006" to="28575524#0"/>
    <trip id="74" depart="222.00" from="-28199464" to="-406398594#1"/>
    <trip id="75" depart="225.00" from="986281369" to="27284741#0"/>
    <trip id="76" depart="228.00" from="-746482268#3" to="143195223#0"/>
    <trip id="77" depart="231.00" from="-23781266#1" to="-28330361#1"/>
    <trip id="78" depart="234.00" from="-487445018#1" to="234468920#1"/>
    <trip id="79" depart="237.00" from="-28331039#1" to="-28330045#3"/>
    <trip id="80" depart="240.00" from="-170350814#2" to="23939684#5"/>
    <trip id="81" depart="243.00" from="-28330357#3" to="52097955#0"/>
    <trip id="82" depart="246.00" from="504580471#2" to="-196346345"/>
    <trip id="83" depart="249.00" from="-28612156#2" to="27794130#0"/>
    <trip id="84" depart="252.00" from="-28286251#0" to="-23820464"/>
    <trip id="85" depart="255.00" from="61319717#7" to="225772534#10"/>
    <trip id="86" depart="258.00" from="-924762428#1" to="33152135#2"/>
    <trip id="87" depart="261.00" from="34909810" to="-28156276#3"/>
    <trip id="88" depart="264.00" from="-23441732#7" to="-823403698#2"/>
    <trip id="89" depart="267.00" from="-61319717#2" to="-986559721#0"/>
    <trip id="90" depart="270.00" from="28329446#0" to="27794182#7"/>
    <trip id="91" depart="273.00" from="89479606#6" to="-23781207#0"/>
    <trip id="92" depart="276.00" from="-52101098#0" to="-507755997"/>
    <trip id="93" depart="279.00" from="506198148#0" to="-28959968"/>
    <trip id="94" depart="282.00" from="-28156030#1" to="-89479602#2"/>
    <trip id="95" depart="285.00" from="-61319704" to="-33152127#1"/>
    <trip id="96" depart="288.00" from="-28957266#1" to="562741431"/>
    <trip id="97" depart="291.00" from="-788786303" to="51874326#3"/>
    <trip id="98" depart="294.00" from="15778659#1" to="-150594430"/>
    <trip id="99" depart="297.00" from="986559721#1" to="48714356"/>
    <trip id="100" depart="300.00" from="842456298#2" to="61319710"/>
    <trip id="101" depart="303.00" from="4815076#0" to="-27794084#0"/>
    <trip id="102" depart="306.00" from="-986281367#1" to="-28329441#1"/>
    <trip id="103" depart="309.00" from="-52071309" to="-16796020#7"/>
    <trip id="104" depart="312.00" from="-51993835#1" to="92973915"/>
    <trip id="105" depart="315.00" from="-29083279#2" to="33152135#0"/>
    <trip id="106" depart="318.00" from="-842456298#0" to="-77056959#2"/>
    <trip id="107" depart="321.00" from="799104281" to="986281370#0"/>
    <trip id="108" depart="324.00" from="16796020#10" to="28330082"/>
    <trip id="109" depart="327.00" from="-27184640#0" to="-37838203#0"/>
    <trip id="110" depart="330.00" from="842456298#1" to="232636896#3"/>
    <trip id="111" depart="333.00" from="146973253" to="28959968"/>
    <trip id="112" depart="336.00" from="-159086916" to="23441732#7"/>
    <trip id="113" depart="339.00" from="109586278" to="51814657#2"/>
    <trip id="114" depart="342.00" from="-27184837#1" to="82935733#3"/>
    <trip id="115" depart="345.00" from="-201771331#3" to="-28156071#1"/>
    <trip id="116" depart="348.00" from="229599361" to="279029840"/>
    <trip id="117" depart="351.00" from="-28367176#1" to="-23781358#2"/>
    <trip id="118" depart="354.00" from="51877631#0" to="-28959961"/>
    <trip id="119" depart="357.00" from="225772545" to="23781408#5"/>
    <trip id="120" depart="360.00" from="-560280581" to="23441732#5"/>
    <trip id="121" depart="363.00" from="1310908639" to="712545170#0"/>
    <trip id="122" depart="366.00" from="-28220784#11" to="28330044#7"/>
    <trip id="123" depart="369.00" from="-28612156#4" to="-525132615#1"/>
    <trip id="124" depart="372.00" from="27284886#3" to="-37839140#2"/>
    <trip id="125" depart="375.00" from="-388936252#0" to="28972856#3"/>
    <trip id="126" depart="378.00" from="-175338871#0" to="-978773119#1"/>
    <trip id="127" depart="381.00" from="986559717" to="986281370#2"/>
    <trip id="128" depart="384.00" from="-184318790" to="-28329426#1"/>
    <trip id="129" depart="387.00" from="-29083279#2" to="630870868#1"/>
    <trip id="130" depart="390.00" from="51876277#0" to="51983954#1"/>
    <trip id="131" depart="393.00" from="-51877103#1" to="-27284886#2"/>
    <trip id="132" depart="396.00" from="41279224#1" to="28286112#1"/>
    <trip id="133" depart="399.00" from="23781239#1" to="966565464#4"/>
    <trip id="134" depart="402.00" from="265261276" to="-1083314118#1"/>
    <trip id="135" depart="405.00" from="37838206#1" to="-37839140#0"/>
    <trip id="136" depart="408.00" from="27184640#2" to="721870696#1"/>
    <trip id="137" depart="411.00" from="-23781468#2" to="-23781285#2"/>
    <trip id="138" depart="414.00" from="-23781239#12" to="191398113#1"/>
    <trip id="139" depart="417.00" from="-315517077#0" to="23781243#5"/>
    <trip id="140" depart="420.00" from="28285706" to="-28285935#0"/>
    <trip id="141" depart="423.00" from="23781408#0" to="-30672852#0"/>
    <trip id="142" depart="426.00" from="-986281372#1" to="52097935"/>
    <trip id="143" depart="429.00" from="4815016#0" to="-23441732#5"/>
    <trip id="144" depart="432.00" from="-61319717#2" to="-31962839"/>
    <trip id="145" depart="435.00" from="-1040498057#1" to="31953939#1"/>
    <trip id="146" depart="438.00" from="23781418#0" to="-296922313#1"/>
    <trip id="147" depart="441.00" from="28331121#0" to="180730393#3"/>
    <trip id="148" depart="444.00" from="-61691804#0" to="-10880955#1"/>
    <trip id="149" depart="447.00" from="-195103648#0" to="51993835#12"/>
    <trip id="150" depart="450.00" from="51993874#9" to="168853056#2"/>
    <trip id="151" depart="453.00" from="41279224#4" to="23441732#10"/>
    <trip id="152" depart="456.00" from="-265261312#1" to="-23781468#0"/>
    <trip id="153" depart="459.00" from="-37839140#2" to="52061881#0"/>
    <trip id="154" depart="462.00" from="329414032" to="51874326#1"/>
    <trip id="155" depart="465.00" from="51993840#0" to="-28286599"/>
    <trip id="156" depart="468.00" from="-28957266#0" to="-23781239#19"/>
    <trip id="157" depart="471.00" from="29985684#1" to="51993835#4"/>
    <trip id="158" depart="474.00" from="-521349998#0" to="23781418#0"/>
    <trip id="159" depart="477.00" from="-27184639#0" to="61319722"/>
    <trip id="160" depart="480.00" from="507756252#0" to="890649108"/>
    <trip id="161" depart="483.00" from="371629772#0" to="51983955#1"/>
    <trip id="162" depart="486.00" from="-1199749512" to="28846563"/>
    <trip id="163" depart="489.00" from="-4815016#1" to="61671154"/>
    <trip id="164" depart="492.00" from="33152140#0" to="51875921#1"/>
    <trip id="165" depart="495.00" from="371629772#0" to="-315517077#1"/>
    <trip id="166" depart="498.00" from="31953726#2" to="-23781243#17"/>
    <trip id="167" depart="501.00" from="51820936#2" to="51827272#3"/>
    <trip id="168" depart="504.00" from="-28330044#1" to="400955169"/>
    <trip id="169" depart="507.00" from="-888213882" to="-388936247#0"/>
    <trip id="170" depart="510.00" from="31962969" to="-28331225#1"/>
    <trip id="171" depart="513.00" from="-1197356066" to="-28156617#1"/>
    <trip id="172" depart="516.00" from="-43413482" to="51875925#0"/>
    <trip id="173" depart="519.00" from="83709672" to="-33152131#0"/>
    <trip id="174" depart="522.00" from="23781483#2" to="-548695741"/>
    <trip id="175" depart="525.00" from="89479593#2" to="166348774"/>
    <trip id="176" depart="528.00" from="630870868#0" to="-23781285#1"/>
    <trip id="177" depart="531.00" from="844989745" to="-279029851"/>
    <trip id="178" depart="534.00" from="82104827#5" to="-30673969#2"/>
    <trip id="179" depart="537.00" from="-23781239#17" to="-842377674#0"/>
    <trip id="180" depart="540.00" from="28329426#2" to="-41279224#3"/>
    <trip id="181" depart="543.00" from="234651131#1" to="1421381159#0"/>
    <trip id="182" depart="546.00" from="-51993874#14" to="229599367"/>
    <trip id="183" depart="549.00" from="-28959969#1" to="28329365#1"/>
    <trip id="184" depart="552.00" from="-1025846604#1" to="61319707"/>
    <trip id="185" depart="555.00" from="143311153" to="28330269#0"/>
    <trip id="186" depart="558.00" from="28331210#1" to="27794145#3"/>
    <trip id="187" depart="561.00" from="-51876277#1" to="-195103645#1"/>
    <trip id="188" depart="564.00" from="27184836#1" to="-487445018#1"/>
    <trip id="189" depart="567.00" from="-388936247#0" to="507755681"/>
    <trip id="190" depart="570.00" from="28285943#0" to="-37839141#1"/>
    <trip id="191" depart="573.00" from="-378946904" to="-61319717#5"/>
    <trip id="192" depart="576.00" from="-52097955#1" to="-37838202#3"/>
    <trip id="193" depart="579.00" from="-23781393#3" to="-746482268#2"/>
    <trip id="194" depart="582.00" from="71044347" to="279029854"/>
    <trip id="195" depart="585.00" from="51993874#5" to="23781393#3"/>
    <trip id="196" depart="588.00" from="-371629781#1" to="168853059#1"/>
    <trip id="197" depart="591.00" from="-100361362" to="-34909808"/>
    <trip id="198" depart="594.00" from="-699160904" to="23292486#1"/>
    <trip id="199" depart="597.00" from="265261312#0" to="-986281372#0"/>
    <trip id="200" depart="600.00" from="-77056971" to="-28329441#0"/>
    <trip id="201" depart="603.00" from="-92973905" to="52061881#5"/>
    <trip id="202" depart="606.00" from="329414032" to="-27794121#0"/>
    <trip id="203" depart="609.00" from="-218041543#3" to="143195216#1"/>
    <trip id="204" depart="612.00" from="23781399#3" to="-504580474"/>
    <trip id="205" depart="615.00" from="37838207#1" to="289616099"/>
    <trip id="206" depart="618.00" from="27284909#1" to="-28330361#1"/>
    <trip id="207" depart="621.00" from="-28156634#0" to="-121751961#0"/>
    <trip id="208" depart="624.00" from="-28957258#0" to="10765119#3"/>
    <trip id="209" depart="627.00" from="4819336" to="-200947898#0"/>
    <trip id="210" depart="630.00" from="-555763410#2" to="23939684#1"/>
    <trip id="211" depart="633.00" from="-28156258#8" to="28220784#0"/>
    <trip id="212" depart="636.00" from="1064823430" to="-28957265"/>
    <trip id="213" depart="639.00" from="26599502" to="-107420250"/>
    <trip id="214" depart="642.00" from="28612389#2" to="31872009#2"/>
    <trip id="215" depart="645.00" from="-23781239#11" to="-79423490#1"/>
    <trip id="216" depart="648.00" from="-27794121#2" to="82104827#4"/>
    <trip id="217" depart="651.00" from="121751960#2" to="-150594429#0"/>
    <trip id="218" depart="654.00" from="-28957265" to="507755682"/>
    <trip id="219" depart="657.00" from="-842456299#1" to="37838203#0"/>
    <trip id="220" depart="660.00" from="27284741#0" to="969536039"/>
    <trip id="221" depart="663.00" from="229599367" to="794716464#0"/>
    <trip id="222" depart="666.00" from="51878243#0" to="23781325#2"/>
    <trip id="223" depart="669.00" from="28285935#0" to="1312425705"/>
    <trip id="224" depart="672.00" from="400955168#1" to="168853059#1"/>
    <trip id="225" depart="675.00" from="51993835#4" to="28957266#1"/>
    <trip id="226" depart="678.00" from="-92973913" to="-29083379"/>
    <trip id="227" depart="681.00" from="-28957261#2" to="265261308"/>
    <trip id="228" depart="684.00" from="28959969#1" to="1446901011"/>
    <trip id="229" depart="687.00" from="23781285#1" to="-31955679#3"/>
    <trip id="230" depart="690.00" from="-200941800" to="-345319794"/>
    <trip id="231" depart="693.00" from="-30673972" to="-4272940"/>
    <trip id="232" depart="696.00" from="1446901011" to="-25152774#0"/>
    <trip id="233" depart="699.00" from="-28331121#1" to="28199464"/>
    <trip id="234" depart="702.00" from="28156299#1" to="-168853056#3"/>
    <trip id="235" depart="705.00" from="-52285176#0" to="168172761"/>
    <trip id="236" depart="708.00" from="-556571004" to="-28286121#0"/>
    <trip id="237" depart="711.00" from="-560280661#1" to="520796464#0"/>
    <trip id="238" depart="714.00" from="201771332#6" to="28220781#3"/>
    <trip id="239" depart="717.00" from="48916235" to="30673971"/>
    <trip id="240" depart="720.00" from="-51993835#2" to="-107420251"/>
    <trip id="241" depart="723.00" from="-51815302" to="28972857#3"/>
    <trip id="242" depart="726.00" from="487445018#1" to="799104282"/>
    <trip id="243" depart="729.00" from="-560280581" to="28959967"/>
    <trip id="244" depart="732.00" from="150593789#0" to="23781243#2"/>
    <trip id="245" depart="735.00" from="-28329472#3" to="-28330045#0"/>
    <trip id="246" depart="738.00" from="-746482264#0" to="-1313899170"/>
    <trip id="247" depart="741.00" from="-487443065#0" to="28050854#1"/>
    <trip id="248" depart="744.00" from="-52103983" to="-27794063#0"/>
    <trip id="249" depart="747.00" from="-89479593#1" to="-23781468#1"/>
    <trip id="250" depart="750.00" from="23781243#7" to="-1310908639"/>
    <trip id="251" depart="753.00" from="-52027386" to="201771332#1"/>
    <trip id="252" depart="756.00" from="-121751960#5" to="27015258#4"/>
    <trip id="253" depart="759.00" from="-23781481#3" to="-986210330"/>
    <trip id="254" depart="762.00" from="-150593772#1" to="-52015614#0"/>
    <trip id="255" depart="765.00" from="-28286112#3" to="-4819336"/>
    <trip id="256" depart="768.00" from="28957266#1" to="-52015614#0"/>
    <trip id="257" depart="771.00" from="28691616#0" to="4815016#3"/>
    <trip id="258" depart="774.00" from="-28959962#1" to="-225772534#10"/>
    <trip id="259" depart="777.00" from="-1181135647" to="16796020#8"/>
    <trip id="260" depart="780.00" from="997471050" to="-51843989"/>
    <trip id="261" depart="783.00" from="25152774#1" to="33152122"/>
    <trip id="262" depart="786.00" from="26002086#2" to="28972857#6"/>
    <trip id="263" depart="789.00" from="746482271" to="-28220784#2"/>
    <trip id="264" depart="792.00" from="-1181135649#1" to="-27184837#3"/>
    <trip id="265" depart="795.00" from="-23781358#2" to="27794130#2"/>
    <trip id="266" depart="798.00" from="168853056#2" to="-28330044#2"/>
    <trip id="267" depart="801.00" from="28156030#0" to="315517078#0"/>
    <trip id="268" depart="804.00" from="-27793989#4" to="23781251#4"/>
    <trip id="269" depart="807.00" from="28575524#1" to="-23781266#0"/>
    <trip id="270" depart="810.00" from="37839140#2" to="842456298#1"/>
    <trip id="271" depart="813.00" from="-23781239#16" to="-1225765327#2"/>
    <trip id="272" depart="816.00" from="-378948976#2" to="279029854"/>
    <trip id="273" depart="819.00" from="799104284" to="-531088969#2"/>
    <trip id="274" depart="822.00" from="28220784#2" to="-201771332#1"/>
    <trip id="275" depart="825.00" from="27794182#6" to="23820645#1"/>
    <trip id="276" depart="828.00" from="-234900592" to="31953969#0"/>
    <trip id="277" depart="831.00" from="48301705#1" to="23781243#1"/>
    <trip id="278" depart="834.00" from="-23781266#1" to="92973906"/>
    <trip id="279" depart="837.00" from="30673969#3" to="-51820936#3"/>
    <trip id="280" depart="840.00" from="-618789962" to="-51993835#13"/>
    <trip id="281" depart="843.00" from="1112520398" to="-513994436"/>
    <trip id="282" depart="846.00" from="4819336" to="413002077#2"/>
    <trip id="283" depart="849.00" from="-23781211#1" to="82935733#3"/>
    <trip id="284" depart="852.00" from="23781408#4" to="461330137"/>
    <trip id="285" depart="855.00" from="28156322#0" to="-842456292"/>
    <trip id="286" depart="858.00" from="28330044#5" to="842456298#3"/>
    <trip id="287" depart="861.00" from="-30672852#0" to="378946913#1"/>
    <trip id="288" depart="864.00" from="143311148#1" to="109586290"/>
    <trip id="289" depart="867.00" from="-72782148" to="28612156#1"/>
    <trip id="290" depart="870.00" from="-296922313#3" to="51814070#1"/>
    <trip id="291" depart="873.00" from="400955168#1" to="-231208845"/>
    <trip id="292" depart="876.00" from="51876478#1" to="-28957263#1"/>
    <trip id="293" depart="879.00" from="-890649107#0" to="23781285#3"/>
    <trip id="294" depart="882.00" from="-51993835#1" to="-1312429222"/>
    <trip id="295" depart="885.00" from="48714356" to="-28050856#2"/>
    <trip id="296" depart="888.00" from="-28286121#1" to="371629781#1"/>
    <trip id="297" depart="891.00" from="-48916235" to="51983954#4"/>
    <trip id="298" depart="894.00" from="28156071#1" to="-31962832#1"/>
    <trip id="299" depart="897.00" from="-1083314119#0" to="77056971"/>
    <trip id="300" depart="900.00" from="-220735960" to="28330269#2"/>
    <trip id="301" depart="903.00" from="-986281372#1" to="29069851"/>
    <trip id="302" depart="906.00" from="27794182#6" to="27184640#2"/>
    <trip id="303" depart="909.00" from="-986559722" to="34909815"/>
    <trip id="304" depart="912.00" from="-23292486#1" to="-28330100#0"/>
    <trip id="305" depart="915.00" from="27794192#0" to="-388936250"/>
    <trip id="306" depart="918.00" from="201771331#2" to="107420247"/>
    <trip id="307" depart="921.00" from="1421381161" to="-79423490#2"/>
    <trip id="308" depart="924.00" from="28367257" to="-487445019#0"/>
    <trip id="309" depart="927.00" from="28156258#2" to="-31953950#0"/>
    <trip id="310" depart="930.00" from="-28959960" to="-23781393#2"/>
    <trip id="311" depart="933.00" from="-28156258#1" to="-23781358#1"/>
    <trip id="312" depart="936.00" from="143195220" to="296922313#2"/>
    <trip id="313" depart="939.00" from="-28050849#1" to="-28329480#1"/>
    <trip id="314" depart="942.00" from="-986210328" to="28331225#1"/>
    <trip id="315" depart="945.00" from="890593721" to="150409784"/>
    <trip id="316" depart="948.00" from="-31962832#1" to="-23781239#10"/>
    <trip id="317" depart="951.00" from="-28156258#7" to="-28331225#0"/>
    <trip id="318" depart="954.00" from="-27794145#1" to="-115750415#2"/>
    <trip id="319" depart="957.00" from="143195216#0" to="-31955679#2"/>
    <trip id="320" depart="960.00" from="886648753" to="191398113#1"/>
    <trip id="321" depart="963.00" from="28050857#0" to="-23781418#1"/>
    <trip id="322" depart="966.00" from="51814658#0" to="1181135649#0"/>
    <trip id="323" depart="969.00" from="51827270" to="225772535"/>
    <trip id="324" depart="972.00" from="-89479603#1" to="-886648752#1"/>
    <trip id="325" depart="975.00" from="-279029851" to="-150594768#2"/>
    <trip id="326" depart="978.00" from="712545170#1" to="10880466"/>
    <trip id="327" depart="981.00" from="378946905#4" to="-555763410#0"/>
    <trip id="328" depart="984.00" from="-191398113#1" to="23879813#5"/>
    <trip id="329" depart="987.00" from="-150594427#1" to="-27184640#0"/>
    <trip id="330" depart="990.00" from="168853055#0" to="-378948976#3"/>
    <trip id="331" depart="993.00" from="986210331" to="-23781325#3"/>
    <trip id="332" depart="996.00" from="28959966#0" to="23781251#1"/>
    <trip id="333" depart="999.00" from="31955236#0" to="-28331039#2"/>
    <trip id="334" depart="1002.00" from="1308396992" to="-89479606#4"/>
    <trip id="335" depart="1005.00" from="-780399873" to="51874182"/>
    <trip id="336" depart="1008.00" from="971981000" to="-388936247#0"/>
    <trip id="337" depart="1011.00" from="23781243#21" to="23781285#0"/>
    <trip id="338" depart="1014.00" from="28331039#0" to="77056959#6"/>
    <trip id="339" depart="1017.00" from="-28285815" to="-28329154#2"/>
    <trip id="340" depart="1020.00" from="27015258#6" to="-27284884#1"/>
    <trip id="341" depart="1023.00" from="-27794100#2" to="-201771331#2"/>
    <trip id="342" depart="1026.00" from="-1034385471#0" to="-89479606#4"/>
    <trip id="343" depart="1029.00" from="225772539" to="-371629772#1"/>
    <trip id="344" depart="1032.00" from="-28331210#0" to="28286251#0"/>
    <trip id="345" depart="1035.00" from="28156258#3" to="-92973915"/>
    <trip id="346" depart="1038.00" from="27794145#0" to="568642242"/>
    <trip id="347" depart="1041.00" from="31953939#1" to="23820310#0"/>
    <trip id="348" depart="1044.00" from="27100978#1" to="630870868#2"/>
    <trip id="349" depart="1047.00" from="-61319717#7" to="168811993#1"/>
    <trip id="350" depart="1050.00" from="23939684#5" to="52120502#2"/>
    <trip id="351" depart="1053.00" from="388936250" to="-200936415"/>
    <trip id="352" depart="1056.00" from="-27793951#3" to="-388936252#1"/>
    <trip id="353" depart="1059.00" from="28612156#2" to="218041543#3"/>
    <trip id="354" depart="1062.00" from="-33152135#3" to="-23781408#4"/>
    <trip id="355" depart="1065.00" from="27794162#1" to="28220971"/>
    <trip id="356" depart="1068.00" from="712545180#0" to="1225217651"/>
    <trip id="357" depart="1071.00" from="1064823425" to="-220012524#0"/>
    <trip id="358" depart="1074.00" from="-1426184494#1" to="-82935733#1"/>
    <trip id="359" depart="1077.00" from="-413002073#1" to="-28960388#2"/>
    <trip id="360" depart="1080.00" from="-231208846" to="83709668"/>
    <trip id="361" depart="1083.00" from="413002074#2" to="225772538"/>
    <trip id="362" depart="1086.00" from="753055007" to="986559721#1"/>
    <trip id="363" depart="1089.00" from="27284906" to="-31953726#0"/>
    <trip id="364" depart="1092.00" from="-143195216#0" to="28972858#6"/>
    <trip id="365" depart="1095.00" from="-89479606#3" to="27284765#2"/>
    <trip id="366" depart="1098.00" from="52101098#2" to="-28050856#1"/>
    <trip id="367" depart="1101.00" from="201771335#0" to="26002086#2"/>
    <trip id="368" depart="1104.00" from="100361376#0" to="-23441732#10"/>
    <trip id="369" depart="1107.00" from="-507756254" to="-49068996"/>
    <trip id="370" depart="1110.00" from="27284765#6" to="51827270"/>
    <trip id="371" depart="1113.00" from="-4810351#1" to="28199427#4"/>
    <trip id="372" depart="1116.00" from="-33152135#2" to="747007932#1"/>
    <trip id="373" depart="1119.00" from="37196443#3" to="175328787"/>
    <trip id="374" depart="1122.00" from="-842456298#0" to="-413002073#2"/>
    <trip id="375" depart="1125.00" from="-413002074#2" to="886648752#1"/>
    <trip id="376" depart="1128.00" from="-52101282#1" to="1426184492#1"/>
    <trip id="377" depart="1131.00" from="966565464#0" to="27793989#0"/>
    <trip id="378" depart="1134.00" from="148527695#0" to="-71044347"/>
    <trip id="379" depart="1137.00" from="-28050857#0" to="-51877112#0"/>
    <trip id="380" depart="1140.00" from="28957258#2" to="23820310#2"/>
    <trip id="381" depart="1143.00" from="28957263#1" to="-28285935#0"/>
    <trip id="382" depart="1146.00" from="150594768#2" to="61319717#3"/>
    <trip id="383" depart="1149.00" from="-746482268#4" to="28220784#5"/>
    <trip id="384" depart="1152.00" from="-23781285#1" to="888357492"/>
    <trip id="385" depart="1155.00" from="23781204#4" to="-28925239"/>
    <trip id="386" depart="1158.00" from="-27204832#0" to="180730393#0"/>
    <trip id="387" depart="1161.00" from="164296763#1" to="-23441732#8"/>
    <trip id="388" depart="1164.00" from="978932720#1" to="531088969#0"/>
    <trip id="389" depart="1167.00" from="-888213898#1" to="-23781306#5"/>
    <trip id="390" depart="1170.00" from="406398594#2" to="121751960#4"/>
    <trip id="391" depart="1173.00" from="28220784#8" to="1313899170"/>
    <trip id="392" depart="1176.00" from="-315517078#2" to="4819336"/>
    <trip id="393" depart="1179.00" from="890693858" to="-28957263#1"/>
    <trip id="394" depart="1182.00" from="159086916" to="-52028060#2"/>
    <trip id="395" depart="1185.00" from="531088969#0" to="1313899168"/>
    <trip id="396" depart="1188.00" from="51875964" to="51875921#1"/>
    <trip id="397" depart="1191.00" from="-31953726#2" to="342491458#1"/>
    <trip id="398" depart="1194.00" from="-55600014" to="71044347"/>
    <trip id="399" depart="1197.00" from="115750415#0" to="413002073#1"/>
    <trip id="400" depart="1200.00" from="-31962832#1" to="-37838207#0"/>
    <trip id="401" depart="1203.00" from="218041543#1" to="986559717"/>
    <trip id="402" depart="1206.00" from="-986559718" to="-27101016#1"/>
    <trip id="403" depart="1209.00" from="1446901003" to="-51815331"/>
    <trip id="404" depart="1212.00" from="164296756" to="168811987#2"/>
    <trip id="405" depart="1215.00" from="-842456298#2" to="-461330137"/>
    <trip id="406" depart="1218.00" from="-28155939#1" to="28220784#2"/>
    <trip id="407" depart="1221.00" from="191398113#2" to="-28612388#0"/>
    <trip id="408" depart="1224.00" from="29083279#1" to="-1448505991"/>
    <trip id="409" depart="1227.00" from="28367150#4" to="28286121#3"/>
    <trip id="410" depart="1230.00" from="371629779" to="-52061881#4"/>
    <trip id="411" depart="1233.00" from="27184640#3" to="413002073#1"/>
    <trip id="412" depart="1236.00" from="89479593#1" to="1199749511#0"/>