<?xml version="1.0" encoding="UTF-8"?>

<!-- generated on 12/03/25 18:15:45 by Eclipse SUMO polyconvert Version 1.5.0
<configuration xmlns:xsi="http://www.w3.org/2001/XMLSchema-instance" xsi:noNamespaceSchemaLocation="http://sumo.dlr.de/xsd/polyconvertConfiguration.xsd">

    <input>
        <net-file value="manching_new.net.xml"/>
        <osm-files value="manching.osm"/>
    </input>

    <output>
        <output-file value="manching_new.poly.xml"/>
    </output>

    <processing>
        <poi-layer-offset value="5"/>
    </processing>

</configuration>
-->

<additional xmlns:xsi="http://www.w3.org/2001/XMLSchema-instance" xsi:noNamespaceSchemaLocation="http://sumo.dlr.de/xsd/additional_file.xsd">
    <location netOffset="-678481.61,-5395305.46" convBoundary="0.00,0.00,12561.77,9575.28" origBoundary="11.426007,48.683320,11.595631,48.768068" projParameter="+proj=utm +zone=32 +ellps=WGS84 +datum=WGS84 +units=m +no_defs"/>

    <poly id="143195223" type="man_made" color="255,230,230" fill="0" layer="-1.00" shape="5999.735392,5207.416896 6013.963099,5198.494540 6027.652215,5202.350165 6040.650003,5207.751915 6052.497961,5214.317501 6071.260423,5226.830026 6089.698555,5242.258253 6102.171276,5253.985070 6114.409895,5266.783493 6127.837998,5281.679586 6140.450934,5299.197003 6183.052762,5359.973334 6194.103594,5376.860809 6206.747739,5391.186066 6220.484960,5403.833885 6234.780019,5414.964650 6319.747493,5478.385574 6367.232404,5516.214403 6414.652001,5554.442080 6432.360887,5568.712560 6450.823586,5581.772920 6466.624485,5591.184898 6483.671451,5598.969060 6561.720080,5631.934121 6576.116291,5638.407064 6587.647684,5644.707500 6600.499936,5653.132312 6624.647562,5672.100296 6685.045919,5722.620532 6698.537502,5732.847007 6708.969078,5740.346423 6723.279583,5748.953278 6741.630001,5758.472645 6834.376286,5805.802909 6896.065752,5837.675320 6958.082808,5869.414649 7006.316220,5893.532525 7054.926338,5918.486704 7074.836148,5927.335645 7088.584216,5931.785682 7098.787348,5933.937432 7108.825505,5934.848656 7178.656109,5937.741694 7195.405001,5938.920047 7210.112090,5942.411895 7222.933609,5947.944233 7231.759034,5953.243951 7240.307964,5959.113110 7247.816467,5966.394270 7253.821560,5973.069239 7261.565302,5984.130221 7268.443264,5995.997013 7301.447711,6075.558296 7304.689900,6085.424099 7307.052693,6096.506939 7307.738387,6109.336692 7306.895612,6122.761097 7302.909155,6137.549957 7291.743222,6169.981503 7287.668989,6180.984329 7283.068624,6193.427323"/>
    <poly id="289616099" type="man_made" color="255,230,230" fill="0" layer="-1.00" shape="5581.083158,4941.193424 5570.570239,4990.528426 5543.097711,5080.430322 5536.513574,5110.790010 5535.903778,5125.768671 5540.770659,5137.377841 5548.643572,5148.451549 5563.647026,5157.345050 5576.810136,5163.329711 5641.396616,5186.069801 5685.906946,5205.769505 5704.025889,5211.683748 5720.632622,5211.428671 5737.552311,5205.909901 5771.916749,5188.758992 5820.232478,5159.004557 5841.102783,5151.769033 5896.319855,5142.259168 5942.525935,5130.561643 5974.349826,5124.432699 6003.351407,5123.318133 6016.138495,5124.395723 6030.278087,5127.765478"/>
    <poly id="30772622" type="sport" color="79,230,125" fill="1" layer="-2.00" shape="6681.276727,4489.306242 6677.039742,4495.441712 6672.217643,4497.897151 6667.863140,4497.564105 6664.933334,4495.108425 6662.505661,4489.487090 6659.281796,4480.111989 6655.202573,4477.240027 6650.821513,4475.259361 6629.884310,4474.155936 6626.663711,4473.370808 6621.100849,4470.394224 6618.710014,4467.444545 6618.268182,4462.322777 6621.609598,4459.673730 6623.083602,4458.509609 6627.589965,4458.257918 6636.287313,4459.947220 6658.845027,4462.584066 6666.273093,4463.919928 6677.071246,4461.739846 6682.208351,4455.545106 6680.690985,4447.550468 6677.293338,4441.874821 6666.404790,4436.986438 6656.161916,4432.831521 6628.856204,4424.162919 6620.129099,4424.264053 6610.394678,4427.447412 6604.878295,4435.988553 6602.463451,4446.022988 6599.777438,4459.586769 6601.438785,4469.689087 6607.267958,4474.632753 6615.114119,4476.905878 6646.595615,4482.174090 6651.994038,4483.665411 6653.932948,4486.255244 6653.594776,4488.691954 6652.634834,4490.785444 6649.576469,4491.774814 6644.399822,4491.592652 6636.455562,4490.284269 6615.947397,4486.891834 6604.809063,4486.000941 6599.747513,4486.123043 6595.331667,4487.201124 6590.666622,4490.029001 6588.518100,4494.453237 6589.106213,4498.044343 6591.354357,4500.410707 6594.144780,4501.737943 6604.307321,4504.087566 6608.613292,4504.552480 6646.072284,4506.034785 6653.730497,4508.201616 6659.098104,4512.184318 6660.949277,4518.765756 6659.097203,4526.916095 6653.188363,4531.739016 6646.506815,4531.206703 6639.536478,4526.937399 6593.466376,4508.458336 6586.345458,4508.746089 6584.086284,4513.400333 6584.767070,4517.306048 6587.257924,4520.570566 6595.768804,4522.999143 6638.055048,4534.788440 6640.916596,4540.646635 6639.661172,4545.667824 6634.530619,4547.434370 6594.102304,4534.449141 6582.516004,4529.293078 6577.578489,4524.100716 6575.854533,4519.237029 6575.439065,4512.647408 6575.868655,4508.333297 6576.906767,4504.094918 6577.273148,4500.357310 6577.747608,4496.244962 6579.004807,4490.945653 6579.302081,4487.517311 6580.006403,4484.469595 6586.366134,4461.090972 6595.443310,4434.119163 6604.208399,4414.591969 6608.625507,4408.128594 6616.319657,4405.200507 6625.971934,4405.842040 6641.877687,4410.172858 6679.883032,4423.434370 6689.350157,4429.677775 6693.194185,4435.657477 6695.650919,4441.735982 6694.410678,4451.864840 6681.276727,4489.306242"/>
    <poly id="39781837" type="man_made" color="255,230,230" fill="0" layer="-1.00" shape="10983.279225,9575.282658 10862.597042,9560.903931 10844.644281,9557.358712 10818.259019,9548.031301 10787.171480,9536.152552 10721.230399,9501.942071 10679.905895,9471.713738 10623.271668,9421.306259 10420.972539,9228.100950 10339.097429,9152.553663 10289.404853,9110.540513 10176.085150,9021.049684 10094.062034,8958.876329 9942.442511,8845.901188 9897.427222,8812.506058 9766.352979,8721.658837 9664.904399,8665.470671 9587.529142,8629.955476 9540.782354,8612.951208 9344.613475,8557.148056 9051.701573,8475.599045 8633.754501,8359.440208 8366.089196,8289.565609 8351.702166,8284.400817 8338.169247,8276.349297 8317.159801,8253.583139 8280.750502,8192.938645 8265.012385,8160.345446 8256.259543,8117.503727 8253.037001,8088.399234 8251.330712,8079.340560 8248.967246,8065.942683 8229.366983,8044.125232 8207.338364,8019.890191 8179.758402,7995.325455 8030.022632,7863.274814 7931.836135,7778.688065 7898.424934,7749.090442 7866.852247,7714.647261 7852.731818,7692.134704 7820.812219,7624.766773 7807.559498,7601.593366 7766.308308,7545.965752 7701.957705,7478.009294 7676.492583,7441.478352 7659.216409,7403.183606 7629.586343,7255.089510 7612.492166,7206.419618 7566.378890,7121.357303 7506.608368,7053.744925 7487.866090,7018.306289 7481.434083,6995.950132 7472.700888,6946.278931 7471.846981,6932.108295 7477.544271,6872.679653 7478.523394,6862.475436 7499.555314,6782.036737 7505.509604,6746.339176 7505.597847,6696.493650 7505.955135,6661.366810 7498.512584,6636.851867 7485.295302,6612.935155 7464.861231,6587.610502 7353.514938,6497.903368 7294.870529,6453.508481 7285.383857,6442.656625 7279.041586,6428.637801 7278.586633,6417.061907 7309.861942,6329.496317 7321.081039,6280.153751 7332.704720,6253.445525 7354.201752,6218.408253 7365.797765,6191.654657 7370.751775,6164.569382 7366.592508,6091.194367 7360.115505,6059.935500 7353.149445,6036.093158 7343.465357,6019.192816 7321.285830,5987.379644 7306.628340,5952.889739 7294.787846,5933.981895 7265.048425,5914.391418 7229.093588,5898.010954 7164.346549,5856.976143 7139.063381,5837.923536 7087.921930,5794.280739 7050.766503,5767.892092 7014.062054,5751.877709 6984.018128,5742.982744 6952.588213,5735.043471 6875.818253,5722.254563 6805.750593,5704.870543 6777.709232,5697.723107 6755.996160,5689.728058 6720.180764,5669.939722 6700.925676,5659.055323 6688.178660,5647.228960 6649.399422,5609.540302 6628.676041,5595.859332 6608.405505,5583.617634 6575.728251,5570.843707 6556.297404,5565.038962 6527.996054,5552.810448 6504.375429,5540.369483 6470.320050,5517.380844 6418.077875,5471.171409 6377.869137,5442.138732 6330.075222,5413.657230 6289.785578,5389.729732 6269.577552,5373.541426 6251.596330,5355.668616 6224.636202,5321.466209 6212.390853,5300.622691 6205.424882,5282.401137 6201.509509,5267.874093 6191.993458,5248.856380 6178.657376,5234.296965 6153.700336,5214.102750 6078.061644,5159.359314 6066.421173,5154.536278"/>
    <poly id="522825197" type="sport" color="79,230,125" fill="1" layer="-2.00" shape="6716.789255,4567.054193 6731.236650,4572.060332 6745.453139,4578.038030 6759.239801,4584.991837 6771.068900,4591.480394 6780.296201,4593.165203 6787.041626,4592.208806 6790.306937,4588.967623 6790.462766,4584.255030 6789.408939,4580.281311 6785.565167,4577.194495 6780.101042,4575.244669 6772.217236,4574.783719 6766.053468,4575.959646 6758.003452,4574.514066 6750.191669,4572.097219 6742.405593,4568.679825 6732.482155,4564.223762 6725.476284,4561.032465 6720.216919,4558.900313 6716.613318,4560.350074 6714.948535,4563.054482 6715.903092,4565.133355 6716.789255,4567.054193"/>
    <poly id="753392903" type="sport" color="79,230,125" fill="0" layer="-2.00" shape="6636.287313,4459.947220 6621.749635,4442.732335 6617.269947,4439.724780 6613.647471,4439.516102 6610.577057,4442.652556 6609.327446,4445.938172 6611.038811,4448.954415 6621.609598,4459.673730"/>
</additional>
