<?xml version="1.0" encoding="UTF-8"?>

<!-- generated on 12/16/25 13:33:50 by Eclipse SUMO polyconvert Version 1.5.0
<configuration xmlns:xsi="http://www.w3.org/2001/XMLSchema-instance" xsi:noNamespaceSchemaLocation="http://sumo.dlr.de/xsd/polyconvertConfiguration.xsd">

    <input>
        <net-file value="baar_ebenhausen.net.xml"/>
        <osm-files value="baar_ebenhausen_raw.osm"/>
    </input>

    <output>
        <output-file value="baar_ebenhausen.poly.xml"/>
    </output>

    <processing>
        <poi-layer-offset value="5"/>
    </processing>

</configuration>
-->

<additional xmlns:xsi="http://www.w3.org/2001/XMLSchema-instance" xsi:noNamespaceSchemaLocation="http://sumo.dlr.de/xsd/additional_file.xsd">
    <location netOffset="-680067.16,-5392520.10" convBoundary="-0.00,-604.50,5047.09,5428.13" origBoundary="11.446407,48.652854,11.513551,48.708193" projParameter="+proj=utm +zone=32 +ellps=WGS84 +datum=WGS84 +units=m +no_defs"/>

    <poly id="1002116364" type="building" color="255,230,230" fill="1" layer="-1.00" shape="2117.425596,538.267728 2120.917496,544.222313 2127.693665,540.269831 2124.201769,534.315242 2117.425596,538.267728"/>
    <poly id="1002116365" type="building" color="255,230,230" fill="1" layer="-1.00" shape="2112.902012,548.891180 2120.917496,544.222313 2117.425596,538.267728 2109.410107,542.936600 2112.902012,548.891180"/>
    <poly id="1002116366" type="building" color="255,230,230" fill="1" layer="-1.00" shape="2131.286870,567.178463 2126.150931,557.832646 2115.931811,563.409116 2121.075123,572.755163 2131.286870,567.178463"/>
    <poly id="1002116367" type="building" color="255,230,230" fill="1" layer="-1.00" shape="2138.196418,550.257098 2130.137684,554.668633 2135.370923,564.195631 2143.437011,559.784343 2138.196418,550.257098"/>
    <poly id="1002116368" type="building" color="255,230,230" fill="1" layer="-1.00" shape="2150.332570,556.013782 2145.091984,546.486531 2138.196418,550.257098 2143.437011,559.784343 2150.332570,556.013782"/>
    <poly id="1002116369" type="building" color="255,230,230" fill="1" layer="-1.00" shape="2170.562315,539.480225 2165.427558,542.362175 2168.536624,547.848191 2173.671377,544.966244 2170.562315,539.480225"/>
    <poly id="1002116370" type="building" color="255,230,230" fill="1" layer="-1.00" shape="2177.859672,535.366695 2170.562315,539.480225 2173.671377,544.966244 2180.968730,540.852718 2177.859672,535.366695"/>
    <poly id="1002116371" type="building" color="255,230,230" fill="1" layer="-1.00" shape="2131.703291,530.041384 2135.001656,535.600279 2140.794608,532.194473 2137.496607,526.624460 2131.703291,530.041384"/>
    <poly id="1002116372" type="building" color="255,230,230" fill="1" layer="-1.00" shape="2163.937610,538.764541 2157.015668,526.768313 2147.139972,532.433761 2154.069288,544.430215 2163.937610,538.764541"/>
    <poly id="1002116373" type="building" color="255,230,230" fill="1" layer="-1.00" shape="2180.968730,540.852718 2192.800687,534.182705 2186.317594,522.745869 2174.485984,529.404782 2177.859672,535.366695 2180.968730,540.852718"/>
    <poly id="1002116374" type="building" color="255,230,230" fill="1" layer="-1.00" shape="2191.331038,508.388816 2193.936565,513.947512 2200.417470,510.920135 2197.804224,505.372311 2195.357362,506.505651 2191.331038,508.388816"/>
    <poly id="1002116375" type="building" color="255,230,230" fill="1" layer="-1.00" shape="2186.645995,510.584391 2191.331038,508.388816 2195.357362,506.505651 2188.793793,492.551666 2180.082772,496.619302 2186.645995,510.584391"/>
    <poly id="1002116376" type="building" color="255,230,230" fill="1" layer="-1.00" shape="2169.347116,486.312865 2179.061086,480.864727 2173.973572,471.843102 2164.259232,477.302363 2169.347116,486.312865"/>
    <poly id="1002116377" type="building" color="255,230,230" fill="1" layer="-1.00" shape="2160.271008,482.780570 2163.508462,488.626788 2167.778177,486.284199 2164.541086,480.426864 2160.271008,482.780570"/>
    <poly id="1002116378" type="building" color="255,230,230" fill="1" layer="-1.00" shape="2137.893305,497.364136 2141.508299,504.068187 2145.438384,501.970465 2141.823754,495.255297 2137.893305,497.364136"/>
    <poly id="1002116379" type="building" color="255,230,230" fill="1" layer="-1.00" shape="2160.018881,490.549647 2163.508462,488.626788 2160.271008,482.780570 2156.781785,484.692317 2157.777277,486.493699 2160.018881,490.549647"/>
    <poly id="1002116380" type="building" color="255,230,230" fill="1" layer="-1.00" shape="2148.806655,491.520943 2141.823754,495.255297 2145.438384,501.970465 2146.744991,504.405011 2153.735608,500.659788 2148.806655,491.520943"/>
    <poly id="1002116381" type="building" color="255,230,230" fill="1" layer="-1.00" shape="2162.817380,495.613907 2160.018881,490.549647 2157.777277,486.493699 2148.806655,491.520943 2153.735608,500.659788 2162.817380,495.613907"/>
    <poly id="1002116382" type="building" color="255,230,230" fill="1" layer="-1.00" shape="2070.756809,591.227875 2055.794409,598.530926 2061.062411,609.260614 2064.627103,607.518156 2069.231556,616.891179 2078.322686,612.457423 2073.725605,603.084631 2076.024791,601.957578 2070.756809,591.227875"/>
    <poly id="1002116383" type="building" color="255,230,230" fill="1" layer="-1.00" shape="2060.526985,592.820893 2058.273839,587.529597 2052.572340,589.937086 2054.825490,595.228380 2060.526985,592.820893"/>
    <poly id="1002116384" type="building" color="255,230,230" fill="1" layer="-1.00" shape="2060.752204,570.653572 2045.550619,577.603980 2050.652157,588.695423 2065.853720,581.745029 2060.752204,570.653572"/>
    <poly id="1002116385" type="building" color="255,230,230" fill="1" layer="-1.00" shape="2033.379124,557.482388 2028.607797,559.842185 2032.766960,568.177115 2037.531281,565.805969 2033.379124,557.482388"/>
    <poly id="1002116386" type="building" color="255,230,230" fill="1" layer="-1.00" shape="2054.609597,557.347607 2048.928410,545.948080 2031.849710,554.417574 2033.379124,557.482388 2037.531281,565.805969 2054.609597,557.347607"/>
    <poly id="1002116387" type="building" color="255,230,230" fill="1" layer="-1.00" shape="1998.224868,560.392370 2003.838382,557.970847 2002.089262,553.953187 1996.475386,556.385827 1998.224868,560.392370"/>
    <poly id="1002116388" type="building" color="255,230,230" fill="1" layer="-1.00" shape="2008.279053,565.580553 2002.448792,568.095180 2007.084120,578.793168 2012.914373,576.278547 2012.235593,574.709987 2008.279053,565.580553"/>
    <poly id="1002116389" type="building" color="255,230,230" fill="1" layer="-1.00" shape="2027.483783,568.139295 2022.669674,557.046072 2007.421461,563.616777 2008.279053,565.580553 2012.235593,574.709987 2027.483783,568.139295"/>
    <poly id="1002116390" type="building" color="255,230,230" fill="1" layer="-1.00" shape="1996.633002,569.709055 1979.015562,578.205738 1984.113518,588.729559 2001.738297,580.233131 1996.633002,569.709055"/>
    <poly id="1002116391" type="building" color="255,230,230" fill="1" layer="-1.00" shape="1778.025283,521.524823 1782.365761,528.597027 1789.125359,524.465594 1784.784885,517.393384 1778.025283,521.524823"/>
    <poly id="1002116392" type="building" color="255,230,230" fill="1" layer="-1.00" shape="1855.450658,468.702037 1870.698516,495.353832 1883.050057,488.332853 1867.802233,461.681024 1855.450658,468.702037"/>
    <poly id="1002116393" type="building" color="255,230,230" fill="1" layer="-1.00" shape="1843.398297,529.505833 1857.412567,522.572049 1852.755421,513.219771 1838.741136,520.153567 1843.398297,529.505833"/>
    <poly id="1002116394" type="building" color="255,230,230" fill="1" layer="-1.00" shape="1947.969146,598.773041 1950.752540,605.216353 1957.553898,602.299234 1954.770510,595.855918 1947.969146,598.773041"/>
    <poly id="1002116395" type="building" color="255,230,230" fill="1" layer="-1.00" shape="1935.811809,611.630315 1950.752540,605.216353 1947.969146,598.773041 1944.849488,591.562246 1929.916092,597.976463 1935.811809,611.630315"/>
    <poly id="1002116396" type="building" color="255,230,230" fill="1" layer="-1.00" shape="1917.441942,606.284000 1921.945431,616.732861 1929.479437,613.494542 1924.975599,603.056789 1917.441942,606.284000"/>
    <poly id="1002116397" type="building" color="255,230,230" fill="1" layer="-1.00" shape="1909.145807,609.842548 1913.649668,620.280288 1921.945431,616.732861 1917.441942,606.284000 1909.145807,609.842548"/>
    <poly id="1002116398" type="building" color="255,230,230" fill="1" layer="-1.00" shape="1897.333288,606.377758 1899.866659,612.123113 1902.887155,610.796842 1900.361149,605.051725 1897.333288,606.377758"/>
    <poly id="1002116399" type="building" color="255,230,230" fill="1" layer="-1.00" shape="1894.238086,607.734989 1896.771459,613.480343 1899.866659,612.123113 1897.333288,606.377758 1894.238086,607.734989"/>
    <poly id="1002116400" type="building" color="255,230,230" fill="1" layer="-1.00" shape="1888.760394,618.249792 1893.872389,629.708583 1903.010356,625.643237 1897.898014,614.195552 1888.760394,618.249792"/>
    <poly id="1002116401" type="building" color="255,230,230" fill="1" layer="-1.00" shape="1885.198463,633.555329 1893.872389,629.708583 1888.760394,618.249792 1880.086095,622.107661 1885.198463,633.555329"/>
    <poly id="1002116402" type="building" color="255,230,230" fill="1" layer="-1.00" shape="1909.780664,679.168469 1902.897200,681.893833 1907.763014,694.123501 1914.646107,691.409258 1909.780664,679.168469"/>
    <poly id="1002116403" type="building" color="255,230,230" fill="1" layer="-1.00" shape="1938.604572,631.881591 1940.480934,636.748950 1943.503387,635.589659 1941.634389,630.722537 1938.604572,631.881591"/>
    <poly id="1002116404" type="building" color="255,230,230" fill="1" layer="-1.00" shape="1937.830719,638.020445 1940.569439,636.974344 1940.480934,636.748950 1938.604572,631.881591 1935.873213,632.927932 1937.830719,638.020445"/>
    <poly id="1002116405" type="building" color="255,230,230" fill="1" layer="-1.00" shape="1928.782003,657.976902 1942.886547,651.435686 1937.435129,639.765569 1923.337926,646.307037 1928.782003,657.976902"/>
    <poly id="1002116406" type="building" color="255,230,230" fill="1" layer="-1.00" shape="1912.640488,642.322040 1916.893182,653.686248 1922.323904,651.670397 1918.071219,640.306184 1912.640488,642.322040"/>
    <poly id="1002116407" type="building" color="255,230,230" fill="1" layer="-1.00" shape="1912.640488,642.322040 1907.955358,644.072782 1910.756805,651.551399 1915.434207,649.811535 1912.640488,642.322040"/>
    <poly id="1002116408" type="building" color="255,230,230" fill="1" layer="-1.00" shape="1899.683656,666.891653 1913.489912,661.820490 1909.221256,650.266620 1895.414977,655.337794 1899.683656,666.891653"/>
    <poly id="1002116409" type="building" color="255,230,230" fill="1" layer="-1.00" shape="1934.538500,673.195045 1933.276635,670.061047 1927.019503,672.561908 1930.737246,681.783679 1936.987007,679.282584 1934.538500,673.195045"/>
    <poly id="1002116410" type="building" color="255,230,230" fill="1" layer="-1.00" shape="1938.501817,683.025599 1954.219527,676.736979 1950.263595,666.906652 1934.538500,673.195045 1936.987007,679.282584 1938.501817,683.025599"/>
    <poly id="1002116411" type="building" color="255,230,230" fill="1" layer="-1.00" shape="1925.595286,689.216234 1930.582802,687.230532 1927.562336,679.689171 1922.582177,681.675115 1925.595286,689.216234"/>
    <poly id="1002116412" type="building" color="255,230,230" fill="1" layer="-1.00" shape="1900.297416,680.018253 1907.810839,676.957263 1905.365701,670.992236 1897.852632,674.042115 1900.297416,680.018253"/>
    <poly id="1002116413" type="building" color="255,230,230" fill="1" layer="-1.00" shape="1914.646107,691.409258 1922.813166,688.191453 1917.955100,675.950896 1909.780664,679.168469 1914.646107,691.409258"/>
    <poly id="1002116414" type="building" color="255,230,230" fill="1" layer="-1.00" shape="1906.887574,749.559438 1902.815289,737.633641 1880.824743,745.098768 1884.904428,757.024787 1906.887574,749.559438"/>
    <poly id="1002116415" type="building" color="255,230,230" fill="1" layer="-1.00" shape="1915.040659,775.647697 1900.782833,779.424688 1895.396291,790.087074 1899.862897,798.031328 1920.132402,791.589746 1915.040659,775.647697"/>
    <poly id="1002116416" type="building" color="255,230,230" fill="1" layer="-1.00" shape="1925.351868,804.954654 1909.618806,808.772811 1912.469109,820.425360 1928.209864,816.596336 1925.351868,804.954654"/>
    <poly id="1002116417" type="building" color="255,230,230" fill="1" layer="-1.00" shape="1922.067581,842.388147 1938.790453,835.542398 1933.434008,822.540200 1916.703744,829.385727 1922.067581,842.388147"/>
    <poly id="1002116418" type="building" color="255,230,230" fill="1" layer="-1.00" shape="1934.403430,867.432650 1950.594798,861.749092 1945.694594,847.860444 1929.495832,853.543778 1934.403430,867.432650"/>
    <poly id="1002116419" type="building" color="255,230,230" fill="1" layer="-1.00" shape="1896.843485,855.266995 1877.761523,861.457848 1882.092366,874.727161 1901.173930,868.547438 1896.843485,855.266995"/>
    <poly id="1002116420" type="building" color="255,230,230" fill="1" layer="-1.00" shape="1858.822532,875.519647 1854.467195,860.502743 1839.455061,864.822872 1843.810073,879.850879 1858.822532,875.519647"/>
    <poly id="1002116421" type="building" color="255,230,230" fill="1" layer="-1.00" shape="1890.039128,833.272419 1869.428963,838.178765 1872.298691,850.143455 1892.909177,845.226006 1890.039128,833.272419"/>
    <poly id="1002116422" type="building" color="255,230,230" fill="1" layer="-1.00" shape="1882.464759,812.977468 1861.616421,817.954012 1864.440768,829.728079 1885.289066,824.751547 1882.464759,812.977468"/>
    <poly id="1002116423" type="building" color="255,230,230" fill="1" layer="-1.00" shape="1834.063530,800.805857 1825.986561,779.637994 1813.242460,784.465603 1821.326470,805.644800 1834.063530,800.805857"/>
    <poly id="1002116424" type="building" color="255,230,230" fill="1" layer="-1.00" shape="1836.870858,808.785309 1824.134172,813.613131 1827.442609,822.276386 1840.179279,817.448572 1836.870858,808.785309"/>
    <poly id="1002116425" type="building" color="255,230,230" fill="1" layer="-1.00" shape="1872.604556,791.807370 1854.405628,798.716753 1858.407342,809.182690 1876.605883,802.284435 1872.604556,791.807370"/>
    <poly id="1002116426" type="building" color="255,230,230" fill="1" layer="-1.00" shape="1864.045967,772.315027 1844.877309,779.582440 1848.755901,789.755097 1867.924532,782.487697 1864.045967,772.315027"/>
    <poly id="1002116427" type="building" color="255,230,230" fill="1" layer="-1.00" shape="1836.066365,757.411675 1839.240428,769.085792 1859.084825,763.709460 1855.910439,752.046446 1836.066365,757.411675"/>
    <poly id="1002116428" type="building" color="255,230,230" fill="1" layer="-1.00" shape="1806.073921,761.869667 1809.043417,772.580281 1821.208857,769.235957 1818.239742,758.514221 1806.073921,761.869667"/>
    <poly id="1002116429" type="building" color="255,230,230" fill="1" layer="-1.00" shape="1788.849118,741.206646 1792.857897,753.052407 1811.843156,746.668973 1807.834411,734.823198 1788.849118,741.206646"/>
    <poly id="1002116430" type="building" color="255,230,230" fill="1" layer="-1.00" shape="1827.064280,733.176383 1833.395484,749.314257 1854.414374,741.127640 1848.083218,724.989741 1827.064280,733.176383"/>
    <poly id="1002116431" type="building" color="255,230,230" fill="1" layer="-1.00" shape="1856.841998,726.252637 1861.065470,739.429433 1878.744271,733.793849 1874.520834,720.617039 1856.841998,726.252637"/>
    <poly id="1002116432" type="building" color="255,230,230" fill="1" layer="-1.00" shape="1878.873118,717.308940 1882.842615,726.950506 1896.465780,721.383823 1892.496302,711.742246 1878.873118,717.308940"/>
    <poly id="1002116433" type="building" color="255,230,230" fill="1" layer="-1.00" shape="1864.816085,687.591440 1869.260768,699.173230 1885.468376,693.000435 1881.024079,681.407517 1864.816085,687.591440"/>
    <poly id="1002116434" type="building" color="255,230,230" fill="1" layer="-1.00" shape="1855.061669,637.897160 1859.318003,648.015298 1870.039211,643.533898 1865.782892,633.415751 1855.061669,637.897160"/>
    <poly id="1002116435" type="building" color="255,230,230" fill="1" layer="-1.00" shape="1826.497503,649.889309 1831.170019,663.314270 1849.162954,657.087942 1844.490474,643.662965 1826.497503,649.889309"/>
    <poly id="1002116436" type="building" color="255,230,230" fill="1" layer="-1.00" shape="1819.573688,680.707197 1824.451278,691.668774 1839.398143,685.054462 1834.513212,674.092633 1819.573688,680.707197"/>
    <poly id="1002116437" type="building" color="255,230,230" fill="1" layer="-1.00" shape="1801.298442,659.019890 1806.419133,671.124198 1822.954157,664.171865 1817.833492,652.067542 1801.298442,659.019890"/>
    <poly id="1002116438" type="building" color="255,230,230" fill="1" layer="-1.00" shape="1769.279571,674.149276 1773.960840,684.804037 1787.394919,678.930558 1782.713670,668.275786 1769.279571,674.149276"/>
    <poly id="1002329129" type="building" color="255,230,230" fill="1" layer="-1.00" shape="1958.953613,907.392933 1957.774341,919.671459 1978.118140,921.610583 1979.297456,909.332060 1958.953613,907.392933"/>
    <poly id="1002329130" type="building" color="255,230,230" fill="1" layer="-1.00" shape="1935.598444,896.043592 1934.527814,910.428502 1948.776200,911.480099 1949.846867,897.095191 1935.598444,896.043592"/>
    <poly id="1002329131" type="building" color="255,230,230" fill="1" layer="-1.00" shape="1922.487293,909.470761 1922.014070,915.430216 1927.571422,915.866262 1928.044651,909.906807 1922.487293,909.470761"/>
    <poly id="1002329132" type="building" color="255,230,230" fill="1" layer="-1.00" shape="1905.502613,908.030133 1899.688305,907.563529 1899.204503,913.622778 1905.019165,914.078267 1905.502613,908.030133"/>
    <poly id="1002329133" type="building" color="255,230,230" fill="1" layer="-1.00" shape="1914.516537,903.003952 1905.952809,902.325835 1905.502613,908.030133 1905.019165,914.078267 1913.582876,914.756383 1914.516537,903.003952"/>
    <poly id="1002329134" type="building" color="255,230,230" fill="1" layer="-1.00" shape="1922.948109,903.666671 1914.516537,903.003952 1913.582876,914.756383 1922.014070,915.430216 1922.487293,909.470761 1922.948109,903.666671"/>
    <poly id="1002340804" type="building" color="255,230,230" fill="1" layer="-1.00" shape="2118.822935,686.459251 2124.172004,684.463195 2123.283283,682.097842 2117.934213,684.093899 2118.822935,686.459251"/>
    <poly id="1002340805" type="building" color="255,230,230" fill="1" layer="-1.00" shape="2138.464199,685.772567 2144.285332,683.992121 2141.778975,675.833116 2135.958196,677.602450 2138.464199,685.772567"/>
    <poly id="1002340806" type="building" color="255,230,230" fill="1" layer="-1.00" shape="2117.123858,671.817589 2120.242068,681.109060 2134.085991,676.473575 2130.960077,667.192972 2117.123858,671.817589"/>
    <poly id="1002340807" type="building" color="255,230,230" fill="1" layer="-1.00" shape="2136.025083,658.734474 2132.984497,650.458003 2126.905953,652.675160 2129.953908,660.951866 2136.025083,658.734474"/>
    <poly id="1002340808" type="building" color="255,230,230" fill="1" layer="-1.00" shape="2112.965644,655.282558 2126.179049,650.092532 2122.610432,641.053474 2109.389648,646.243270 2112.965644,655.282558"/>
    <poly id="1002340809" type="building" color="255,230,230" fill="1" layer="-1.00" shape="2095.631819,665.034215 2090.625676,667.364085 2089.151508,668.050593 2090.819598,671.609482 2097.299906,668.593105 2095.631819,665.034215"/>
    <poly id="1002340810" type="building" color="255,230,230" fill="1" layer="-1.00" shape="2090.625676,667.364085 2095.631819,665.034215 2104.274818,661.008763 2099.587585,651.009949 2085.938426,657.365283 2090.625676,667.364085"/>
    <poly id="1002340811" type="building" color="255,230,230" fill="1" layer="-1.00" shape="2114.071683,689.565082 2109.004092,678.797330 2090.893518,687.277655 2095.961494,698.034275 2114.071683,689.565082"/>
    <poly id="1002340813" type="building" color="255,230,230" fill="1" layer="-1.00" shape="2080.283497,637.210198 2083.327495,643.339379 2091.685911,639.226790 2088.642279,633.086491 2080.283497,637.210198"/>
    <poly id="1002340814" type="building" color="255,230,230" fill="1" layer="-1.00" shape="2087.276430,597.037607 2097.760776,590.779866 2092.886643,582.677589 2082.402289,588.935340 2087.276430,597.037607"/>
    <poly id="1002340815" type="building" color="255,230,230" fill="1" layer="-1.00" shape="2103.502304,599.633496 2108.834888,596.557639 2105.596520,590.967326 2100.256209,594.054061 2103.502304,599.633496"/>
    <poly id="1002340816" type="building" color="255,230,230" fill="1" layer="-1.00" shape="2114.825185,622.275640 2120.443744,619.698630 2117.578991,613.497360 2111.960427,616.074373 2114.825185,622.275640"/>
    <poly id="1002340817" type="building" color="255,230,230" fill="1" layer="-1.00" shape="2097.366084,621.119498 2111.547206,613.590936 2106.634830,604.397031 2092.454054,611.914490 2097.366084,621.119498"/>
    <poly id="1002340818" type="building" color="255,230,230" fill="1" layer="-1.00" shape="2076.321404,639.162279 2080.283497,637.210198 2088.642279,633.086491 2090.581935,632.136927 2086.078952,623.045331 2071.818405,630.070696 2076.321404,639.162279"/>
    <poly id="1002340819" type="building" color="255,230,230" fill="1" layer="-1.00" shape="2040.769151,725.027542 2048.143290,721.717443 2045.743672,716.399145 2038.369528,719.709247 2040.769151,725.027542"/>
    <poly id="1002340820" type="building" color="255,230,230" fill="1" layer="-1.00" shape="2032.260886,720.812898 2043.743935,715.566573 2039.049497,705.333926 2030.319350,709.323267 2031.241365,711.344769 2028.488449,712.601764 2032.260886,720.812898"/>
    <poly id="1002340821" type="building" color="255,230,230" fill="1" layer="-1.00" shape="2063.993265,722.031289 2059.488333,711.637876 2054.360694,713.852572 2058.865634,724.245981 2063.993265,722.031289"/>
    <poly id="1002340822" type="building" color="255,230,230" fill="1" layer="-1.00" shape="2071.778064,707.652787 2067.609784,697.559571 2057.070236,701.890723 2061.245894,711.984170 2071.778064,707.652787"/>
    <poly id="1002340823" type="building" color="255,230,230" fill="1" layer="-1.00" shape="2034.726162,744.558399 2037.368298,751.942916 2055.128519,745.620691 2051.154657,734.532430 2033.394408,740.854668 2034.726162,744.558399"/>
    <poly id="1002340824" type="building" color="255,230,230" fill="1" layer="-1.00" shape="2030.774460,745.965658 2033.416600,753.350173 2037.368298,751.942916 2034.726162,744.558399 2030.774460,745.965658"/>
    <poly id="1002340825" type="building" color="255,230,230" fill="1" layer="-1.00" shape="2024.765882,746.939046 2027.780146,755.348116 2033.416600,753.350173 2030.774460,745.965658 2030.402342,744.941100 2024.765882,746.939046"/>
    <poly id="1002340826" type="building" color="255,230,230" fill="1" layer="-1.00" shape="2015.977329,759.549357 2027.780146,755.348116 2024.765882,746.939046 2023.697818,743.967076 2011.902344,748.168566 2015.977329,759.549357"/>
    <poly id="1002340827" type="building" color="255,230,230" fill="1" layer="-1.00" shape="2021.050532,850.136961 2025.477049,853.629525 2029.226894,848.900095 2024.793013,845.407289 2021.050532,850.136961"/>
    <poly id="1002340828" type="building" color="255,230,230" fill="1" layer="-1.00" shape="2021.017969,832.734440 2015.350109,839.793818 2020.982103,844.293457 2024.985657,839.694641 2032.169127,839.304551 2031.816278,832.005408 2021.017969,832.734440"/>
    <poly id="1002340829" type="building" color="255,230,230" fill="1" layer="-1.00" shape="2006.714586,813.600724 2009.360690,819.271914 2015.031983,816.652016 2012.385883,810.980824 2006.714586,813.600724"/>
    <poly id="1002340830" type="building" color="255,230,230" fill="1" layer="-1.00" shape="2005.821408,824.553372 2008.063521,829.955557 2009.450971,833.305049 2014.022518,831.417198 2010.392600,822.676633 2005.821408,824.553372"/>
    <poly id="1002340831" type="building" color="255,230,230" fill="1" layer="-1.00" shape="1992.235157,836.485198 2008.063521,829.955557 2005.821408,824.553372 2003.319355,818.530815 1987.490605,825.071584 1992.235157,836.485198"/>
    <poly id="1002340832" type="building" color="255,230,230" fill="1" layer="-1.00" shape="1980.014493,845.624137 1981.931558,849.914272 1992.085990,845.403615 1990.168931,841.113476 1986.998406,842.523840 1980.014493,845.624137"/>
    <poly id="1002340833" type="building" color="255,230,230" fill="1" layer="-1.00" shape="1968.798086,850.612190 1980.014493,845.624137 1986.998406,842.523840 1981.893109,831.098534 1969.644851,836.542685 1971.190683,840.008564 1965.245959,842.653017 1968.798086,850.612190"/>
    <poly id="1002340834" type="building" color="255,230,230" fill="1" layer="-1.00" shape="1998.307835,863.985943 2001.720597,870.104789 2006.425971,867.498068 2003.020574,861.379457 1998.307835,863.985943"/>
    <poly id="1002340835" type="building" color="255,230,230" fill="1" layer="-1.00" shape="1982.442092,874.853631 1998.677266,866.456825 1992.322893,854.234416 1976.087696,862.631242 1982.442092,874.853631"/>
    <poly id="1002340836" type="building" color="255,230,230" fill="1" layer="-1.00" shape="2010.127735,857.660116 2018.638327,846.798736 2011.356467,841.132969 2009.465384,843.541671 2004.915136,840.000603 2000.002457,846.272268 2004.552703,849.813332 2002.845883,851.994359 2010.127735,857.660116"/>
    <poly id="1002340837" type="building" color="255,230,230" fill="1" layer="-1.00" shape="2011.436831,867.515927 2022.040780,872.777630 2027.202470,862.464102 2016.598865,857.191275 2011.436831,867.515927"/>
    <poly id="1002340838" type="building" color="255,230,230" fill="1" layer="-1.00" shape="1996.150477,886.424397 2011.226842,890.807497 2013.505869,883.026270 1998.422122,878.642926 1996.150477,886.424397"/>
    <poly id="1002340839" type="building" color="255,230,230" fill="1" layer="-1.00" shape="2017.139716,780.293013 2019.472086,786.321199 2022.532011,785.140916 2020.192282,779.112490 2017.139716,780.293013"/>
    <poly id="1002340840" type="building" color="255,230,230" fill="1" layer="-1.00" shape="2013.885850,781.544893 2014.647332,783.516682 2016.225586,787.573316 2019.472086,786.321199 2017.139716,780.293013 2013.885850,781.544893"/>
    <poly id="1002340841" type="building" color="255,230,230" fill="1" layer="-1.00" shape="2023.880680,784.005272 2034.754951,779.573661 2031.093980,770.654056 2020.227418,775.074799 2023.880680,784.005272"/>
    <poly id="1002340842" type="building" color="255,230,230" fill="1" layer="-1.00" shape="2007.132024,786.410570 2014.647332,783.516682 2013.885850,781.544893 2012.389811,777.680072 2004.867135,780.573725 2007.132024,786.410570"/>
    <poly id="1002340843" type="building" color="255,230,230" fill="1" layer="-1.00" shape="1998.150200,797.256689 2009.628477,792.833492 2007.132024,786.410570 2004.867135,780.573725 1993.396199,784.997171 1998.150200,797.256689"/>
    <poly id="1002340844" type="building" color="255,230,230" fill="1" layer="-1.00" shape="1988.574094,801.430052 1994.313041,799.223998 1991.864505,792.913901 1986.132554,795.131311 1988.574094,801.430052"/>
    <poly id="1002340845" type="building" color="255,230,230" fill="1" layer="-1.00" shape="1967.578603,802.529505 1969.823234,808.310046 1970.203800,809.301495 1978.637208,806.047909 1976.019381,799.276154 1967.578603,802.529505"/>
    <poly id="1002340846" type="building" color="255,230,230" fill="1" layer="-1.00" shape="1956.262533,813.544783 1969.823234,808.310046 1967.578603,802.529505 1966.360963,799.396930 1952.800605,804.620561 1956.262533,813.544783"/>
    <poly id="1002340847" type="building" color="255,230,230" fill="1" layer="-1.00" shape="1958.045387,767.417527 1960.855440,773.717075 1964.010911,772.317333 1961.200861,766.017784 1958.045387,767.417527"/>
    <poly id="1002340848" type="building" color="255,230,230" fill="1" layer="-1.00" shape="1955.449375,776.111976 1960.855440,773.717075 1958.045387,767.417527 1952.639318,769.812431 1955.449375,776.111976"/>
    <poly id="1002340849" type="building" color="255,230,230" fill="1" layer="-1.00" shape="1945.512373,773.230798 1951.303020,771.248901 1950.313386,768.357373 1944.515374,770.339033 1945.512373,773.230798"/>
    <poly id="1002340850" type="building" color="255,230,230" fill="1" layer="-1.00" shape="1963.921581,784.620068 1961.174809,777.732879 1957.815365,779.059251 1960.554778,785.946201 1963.921581,784.620068"/>
    <poly id="1002340851" type="building" color="255,230,230" fill="1" layer="-1.00" shape="1970.236633,781.920860 1982.489588,777.244567 1978.290065,766.293688 1966.029729,770.969752 1970.236633,781.920860"/>
    <poly id="1002340852" type="building" color="255,230,230" fill="1" layer="-1.00" shape="1945.196849,790.466251 1957.785120,784.766036 1952.955247,774.161909 1940.359597,779.861897 1945.196849,790.466251"/>
    <poly id="1002340853" type="building" color="255,230,230" fill="1" layer="-1.00" shape="1948.224501,705.481998 1938.719231,709.513107 1944.843123,723.853077 1953.705496,720.101546 1952.568402,717.438890 1962.813341,713.097997 1956.853562,699.152745 1947.265849,703.225672 1948.224501,705.481998"/>
    <poly id="1002340854" type="building" color="255,230,230" fill="1" layer="-1.00" shape="1935.942340,710.146299 1933.703547,704.410471 1931.501786,705.262581 1933.740581,710.998408 1935.942340,710.146299"/>
    <poly id="1002340855" type="building" color="255,230,230" fill="1" layer="-1.00" shape="1921.626758,729.342347 1936.151958,723.460082 1931.802688,712.804801 1917.284829,718.687317 1921.626758,729.342347"/>