<?xml version="1.0" encoding="UTF-8"?>

<!-- generated on 12/16/25 13:33:14 by Eclipse SUMO netconvert Version 1.5.0
<configuration xmlns:xsi="http://www.w3.org/2001/XMLSchema-instance" xsi:noNamespaceSchemaLocation="http://sumo.dlr.de/xsd/netconvertConfiguration.xsd">

    <input>
        <osm-files value="baar_ebenhausen_raw.osm"/>
    </input>

    <output>
        <output-file value="baar_ebenhausen.net.xml"/>
    </output>

    <projection>
        <proj.utm value="true"/>
    </projection>

    <tls_building>
        <tls.discard-simple value="true"/>
    </tls_building>

    <edge_removal>
        <keep-edges.by-vclass value="passenger"/>
        <remove-edges.isolated value="true"/>
    </edge_removal>

    <junctions>
        <no-turnarounds.tls value="true"/>
        <junctions.join value="true"/>
    </junctions>

    <report>
        <aggregate-warnings value="5"/>
    </report>

</configuration>
-->

<net version="1.3" junctionCornerDetail="5" limitTurnSpeed="5.50" xmlns:xsi="http://www.w3.org/2001/XMLSchema-instance" xsi:noNamespaceSchemaLocation="http://sumo.dlr.de/xsd/net_file.xsd">

    <location netOffset="-680067.16,-5392520.10" convBoundary="0.00,0.00,4518.64,5428.13" origBoundary="11.446407,48.652854,11.513551,48.708193" projParameter="+proj=utm +zone=32 +ellps=WGS84 +datum=WGS84 +units=m +no_defs"/>

    <type id="highway.bridleway" priority="1" numLanes="1" speed="2.78" allow="pedestrian" oneway="1" width="2.00"/>
    <type id="highway.bus_guideway" priority="1" numLanes="1" speed="27.78" allow="bus" oneway="1"/>
    <type id="highway.cycleway" priority="1" numLanes="1" speed="8.33" allow="bicycle" oneway="0" width="1.00"/>
    <type id="highway.footway" priority="1" numLanes="1" speed="2.78" allow="pedestrian" oneway="1" width="2.00"/>
    <type id="highway.ford" priority="1" numLanes="1" speed="2.78" allow="army" oneway="0"/>
    <type id="highway.living_street" priority="2" numLanes="1" speed="2.78" disallow="tram rail_urban rail rail_electric rail_fast ship" oneway="0"/>
    <type id="highway.motorway" priority="14" numLanes="2" speed="39.44" allow="private emergency authority army vip passenger hov taxi bus coach delivery truck trailer motorcycle evehicle custom1 custom2" oneway="1"/>
    <type id="highway.motorway_link" priority="9" numLanes="1" speed="22.22" allow="private emergency authority army vip passenger hov taxi bus coach delivery truck trailer motorcycle evehicle custom1 custom2" oneway="1"/>
    <type id="highway.path" priority="1" numLanes="1" speed="2.78" allow="pedestrian bicycle" oneway="1" width="2.00"/>
    <type id="highway.pedestrian" priority="1" numLanes="1" speed="2.78" allow="pedestrian" oneway="1" width="2.00"/>
    <type id="highway.primary" priority="12" numLanes="2" speed="27.78" disallow="tram rail_urban rail rail_electric rail_fast ship" oneway="0"/>
    <type id="highway.primary_link" priority="7" numLanes="1" speed="22.22" disallow="tram rail_urban rail rail_electric rail_fast ship" oneway="0"/>
    <type id="highway.raceway" priority="15" numLanes="2" speed="83.33" allow="vip" oneway="0"/>
    <type id="highway.residential" priority="3" numLanes="1" speed="13.89" disallow="tram rail_urban rail rail_electric rail_fast ship" oneway="0"/>
    <type id="highway.secondary" priority="11" numLanes="1" speed="27.78" disallow="tram rail_urban rail rail_electric rail_fast ship" oneway="0"/>
    <type id="highway.secondary_link" priority="6" numLanes="1" speed="22.22" disallow="tram rail_urban rail rail_electric rail_fast ship" oneway="0"/>
    <type id="highway.service" priority="1" numLanes="1" speed="5.56" allow="pedestrian delivery bicycle" oneway="0"/>
    <type id="highway.stairs" priority="1" numLanes="1" speed="1.39" allow="pedestrian" oneway="1" width="2.00"/>
    <type id="highway.step" priority="1" numLanes="1" speed="1.39" allow="pedestrian" oneway="1" width="2.00"/>
    <type id="highway.steps" priority="1" numLanes="1" speed="1.39" allow="pedestrian" oneway="1" width="2.00"/>
    <type id="highway.tertiary" priority="10" numLanes="1" speed="22.22" disallow="tram rail_urban rail rail_electric rail_fast ship" oneway="0"/>
    <type id="highway.tertiary_link" priority="5" numLanes="1" speed="22.22" disallow="tram rail_urban rail rail_electric rail_fast ship" oneway="0"/>
    <type id="highway.track" priority="1" numLanes="1" speed="5.56" disallow="tram rail_urban rail rail_electric rail_fast ship" oneway="0"/>
    <type id="highway.trunk" priority="13" numLanes="2" speed="27.78" disallow="pedestrian bicycle tram rail_urban rail rail_electric rail_fast ship" oneway="0"/>
    <type id="highway.trunk_link" priority="8" numLanes="1" speed="22.22" disallow="pedestrian bicycle tram rail_urban rail rail_electric rail_fast ship" oneway="0"/>
    <type id="highway.unclassified" priority="4" numLanes="1" speed="13.89" disallow="tram rail_urban rail rail_electric rail_fast ship" oneway="0"/>
    <type id="highway.unsurfaced" priority="1" numLanes="1" speed="8.33" disallow="tram rail_urban rail rail_electric rail_fast ship" oneway="0"/>
    <type id="railway.highspeed" priority="21" numLanes="1" speed="69.44" allow="rail_fast" oneway="1"/>
    <type id="railway.light_rail" priority="19" numLanes="1" speed="27.78" allow="rail_urban" oneway="1"/>
    <type id="railway.preserved" priority="16" numLanes="1" speed="27.78" allow="rail" oneway="1"/>
    <type id="railway.rail" priority="20" numLanes="1" speed="44.44" allow="rail" oneway="1"/>
    <type id="railway.subway" priority="18" numLanes="1" speed="27.78" allow="rail_urban" oneway="1"/>
    <type id="railway.tram" priority="17" numLanes="1" speed="13.89" allow="tram" oneway="1"/>

    <edge id=":10916150040_0" function="internal">
        <lane id=":10916150040_0_0" index="0" disallow="tram rail_urban rail rail_electric rail_fast ship" speed="6.71" length="9.29" shape="1364.65,1977.09 1362.06,1977.19 1360.09,1978.05 1358.75,1979.65 1358.04,1982.01"/>
    </edge>
    <edge id=":10916150040_1" function="internal">
        <lane id=":10916150040_1_0" index="0" disallow="tram rail_urban rail rail_electric rail_fast ship" speed="7.92" length="14.38" shape="1364.65,1977.09 1360.80,1976.16 1358.22,1974.22 1356.93,1971.27 1356.92,1967.31"/>
    </edge>
    <edge id=":10916150040_2" function="internal">
        <lane id=":10916150040_2_0" index="0" disallow="tram rail_urban rail rail_electric rail_fast ship" speed="3.65" length="4.67" shape="1364.65,1977.09 1363.53,1976.18 1363.21,1975.35 1363.68,1974.59 1364.95,1973.90"/>
    </edge>
    <edge id=":10916150040_3" function="internal">
        <lane id=":10916150040_3_0" index="0" disallow="tram rail_urban rail rail_electric rail_fast ship" speed="6.41" length="9.04" shape="1360.09,1967.75 1360.09,1970.25 1360.91,1972.10 1362.52,1973.32 1364.95,1973.90"/>
    </edge>
    <edge id=":10916150040_4" function="internal">
        <lane id=":10916150040_4_0" index="0" disallow="tram rail_urban rail rail_electric rail_fast ship" speed="13.89" length="14.40" shape="1360.09,1967.75 1358.04,1982.01"/>
    </edge>
    <edge id=":10916150040_5" function="internal">
        <lane id=":10916150040_5_0" index="0" disallow="tram rail_urban rail rail_electric rail_fast ship" speed="3.65" length="2.34" shape="1360.09,1967.75 1359.13,1968.83 1358.28,1969.11"/>
    </edge>
    <edge id=":10916150040_9" function="internal">
        <lane id=":10916150040_9_0" index="0" disallow="tram rail_urban rail rail_electric rail_fast ship" speed="3.65" length="2.34" shape="1358.28,1969.11 1357.54,1968.61 1356.92,1967.31"/>
    </edge>
    <edge id=":10916150040_6" function="internal">
        <lane id=":10916150040_6_0" index="0" disallow="tram rail_urban rail rail_electric rail_fast ship" speed="13.89" length="14.38" shape="1354.87,1981.54 1356.92,1967.31"/>
    </edge>
    <edge id=":10916150040_7" function="internal">
        <lane id=":10916150040_7_0" index="0" disallow="tram rail_urban rail rail_electric rail_fast ship" speed="8.17" length="5.81" shape="1354.87,1981.54 1355.97,1977.89 1357.24,1976.34"/>
    </edge>
    <edge id=":10916150040_8" function="internal">
        <lane id=":10916150040_8_0" index="0" disallow="tram rail_urban rail rail_electric rail_fast ship" speed="3.65" length="2.34" shape="1354.87,1981.54 1355.84,1980.47 1356.69,1980.19"/>
    </edge>
    <edge id=":10916150040_10" function="internal">
        <lane id=":10916150040_10_0" index="0" disallow="tram rail_urban rail rail_electric rail_fast ship" speed="8.17" length="8.44" shape="1357.24,1976.34 1358.01,1975.40 1361.00,1974.07 1364.95,1973.90"/>
    </edge>
    <edge id=":10916150040_11" function="internal">
        <lane id=":10916150040_11_0" index="0" disallow="tram rail_urban rail rail_electric rail_fast ship" speed="3.65" length="2.34" shape="1356.69,1980.19 1357.42,1980.70 1358.04,1982.01"/>
    </edge>
    <edge id=":10916150041_0" function="internal">
        <lane id=":10916150041_0_0" index="0" disallow="tram rail_urban rail rail_electric rail_fast ship" speed="3.65" length="4.67" shape="1426.16,1975.91 1427.41,1976.62 1427.86,1977.39 1427.52,1978.22 1426.38,1979.10"/>
    </edge>
    <edge id=":10925083251_0" function="internal">
        <lane id=":10925083251_0_0" index="0" disallow="tram rail_urban rail rail_electric rail_fast ship" speed="13.89" length="0.28" shape="1350.41,2297.51 1350.42,2297.23"/>
    </edge>
    <edge id=":10925083251_1" function="internal">
        <lane id=":10925083251_1_0" index="0" disallow="tram rail_urban rail rail_electric rail_fast ship" speed="13.89" length="0.10" shape="1353.61,2297.50 1353.61,2297.50"/>
    </edge>
    <edge id=":10925091601_0" function="internal">
        <lane id=":10925091601_0_0" index="0" disallow="tram rail_urban rail rail_electric rail_fast ship" speed="3.65" length="4.67" shape="1747.91,1560.66 1747.86,1559.22 1748.28,1558.43 1749.16,1558.29 1750.51,1558.80"/>
    </edge>
    <edge id=":10937025144_0" function="internal">
        <lane id=":10937025144_0_0" index="0" disallow="tram rail_urban rail rail_electric rail_fast ship" speed="13.89" length="0.10" shape="1380.98,1811.73 1380.98,1811.73"/>
    </edge>
    <edge id=":10937025144_1" function="internal">
        <lane id=":10937025144_1_0" index="0" disallow="tram rail_urban rail rail_electric rail_fast ship" speed="13.89" length="0.10" shape="1377.80,1811.34 1377.80,1811.34"/>
    </edge>
    <edge id=":10937025149_0" function="internal">
        <lane id=":10937025149_0_0" index="0" disallow="tram rail_urban rail rail_electric rail_fast ship" speed="8.33" length="0.34" shape="1493.70,1808.67 1493.66,1808.33"/>
    </edge>
    <edge id=":10937025149_1" function="internal">
        <lane id=":10937025149_1_0" index="0" disallow="tram rail_urban rail rail_electric rail_fast ship" speed="8.33" length="0.11" shape="1496.85,1808.07 1496.86,1808.18"/>
    </edge>
    <edge id=":11113161005_0" function="internal">
        <lane id=":11113161005_0_0" index="0" disallow="tram rail_urban rail rail_electric rail_fast ship" speed="8.33" length="0.10" shape="1222.51,1870.43 1222.48,1870.36"/>
    </edge>
    <edge id=":11113161005_1" function="internal">
        <lane id=":11113161005_1_0" index="0" disallow="tram rail_urban rail rail_electric rail_fast ship" speed="8.33" length="0.10" shape="1225.44,1869.14 1225.41,1869.07"/>
    </edge>
    <edge id=":11252407486_0" function="internal">
        <lane id=":11252407486_0_0" index="0" disallow="tram rail_urban rail rail_electric rail_fast ship" speed="8.33" length="0.10" shape="1225.59,1817.65 1225.60,1817.57"/>
    </edge>
    <edge id=":11252407486_1" function="internal">
        <lane id=":11252407486_1_0" index="0" disallow="tram rail_urban rail rail_electric rail_fast ship" speed="8.33" length="0.10" shape="1222.43,1817.13 1222.44,1817.05"/>
    </edge>
    <edge id=":11252407492_0" function="internal">
        <lane id=":11252407492_0_0" index="0" disallow="tram rail_urban rail rail_electric rail_fast ship" speed="8.33" length="0.30" shape="1221.36,1848.18 1221.32,1848.48"/>
    </edge>
    <edge id=":11252407492_1" function="internal">
        <lane id=":11252407492_1_0" index="0" disallow="tram rail_urban rail rail_electric rail_fast ship" speed="8.33" length="0.30" shape="1218.15,1848.04 1218.19,1847.74"/>
    </edge>
    <edge id=":1132432561_0" function="internal">
        <lane id=":1132432561_0_0" index="0" disallow="tram rail_urban rail rail_electric rail_fast ship" speed="13.89" length="0.31" shape="1353.99,2289.93 1353.98,2290.24"/>
    </edge>
    <edge id=":1132432561_1" function="internal">
        <lane id=":1132432561_1_0" index="0" disallow="tram rail_urban rail rail_electric rail_fast ship" speed="13.89" length="0.27" shape="1350.78,2290.10 1350.79,2289.82"/>
    </edge>
    <edge id=":1285279092_0" function="internal">
        <lane id=":1285279092_0_0" index="0" disallow="tram rail_urban rail rail_electric rail_fast ship" speed="13.89" length="13.98" shape="1752.39,3169.70 1751.73,3166.17 1751.00,3162.85 1750.11,3159.57 1748.98,3156.16"/>
    </edge>
    <edge id=":1285279092_1" function="internal">
        <lane id=":1285279092_1_0" index="0" disallow="tram rail_urban rail rail_electric rail_fast ship" speed="7.58" length="5.91" shape="1752.39,3169.70 1752.24,3165.26 1752.86,3163.92"/>
    </edge>
    <edge id=":1285279092_2" function="internal">
        <lane id=":1285279092_2_0" index="0" disallow="tram rail_urban rail rail_electric rail_fast ship" speed="3.65" length="2.34" shape="1752.39,3169.70 1752.97,3168.38 1753.69,3167.84"/>
    </edge>
    <edge id=":1285279092_9" function="internal">
        <lane id=":1285279092_9_0" index="0" disallow="tram rail_urban rail rail_electric rail_fast ship" speed="7.58" length="9.54" shape="1752.86,3163.92 1753.62,3162.28 1756.53,3160.74 1760.97,3160.64"/>
    </edge>
    <edge id=":1285279092_10" function="internal">
        <lane id=":1285279092_10_0" index="0" disallow="tram rail_urban rail rail_electric rail_fast ship" speed="3.65" length="2.34" shape="1753.69,3167.84 1754.54,3168.10 1755.54,3169.14"/>
    </edge>
    <edge id=":1285279092_3" function="internal">
        <lane id=":1285279092_3_0" index="0" disallow="tram rail_urban rail rail_electric rail_fast ship" speed="5.96" length="9.09" shape="1760.58,3163.82 1757.98,3163.87 1756.27,3164.78 1755.45,3166.54 1755.54,3169.14"/>
    </edge>
    <edge id=":1285279092_4" function="internal">
        <lane id=":1285279092_4_0" index="0" disallow="tram rail_urban rail rail_electric rail_fast ship" speed="10.01" length="14.65" shape="1760.58,3163.82 1756.40,3162.92 1753.07,3161.34 1750.60,3159.09 1748.98,3156.16"/>
    </edge>
    <edge id=":1285279092_5" function="internal">
        <lane id=":1285279092_5_0" index="0" disallow="tram rail_urban rail rail_electric rail_fast ship" speed="3.65" length="4.67" shape="1760.58,3163.82 1759.49,3162.88 1759.19,3162.04 1759.68,3161.29 1760.97,3160.64"/>
    </edge>
    <edge id=":1285279092_6" function="internal">
        <lane id=":1285279092_6_0" index="0" disallow="tram rail_urban rail rail_electric rail_fast ship" speed="8.78" length="11.12" shape="1751.99,3155.07 1753.19,3157.18 1755.08,3158.81 1757.68,3159.96 1760.97,3160.64"/>
    </edge>
    <edge id=":1285279092_7" function="internal">
        <lane id=":1285279092_7_0" index="0" disallow="tram rail_urban rail rail_electric rail_fast ship" speed="13.89" length="14.53" shape="1751.99,3155.07 1753.14,3158.56 1754.08,3162.02 1754.86,3165.53 1755.54,3169.14"/>
    </edge>
    <edge id=":1285279092_8" function="internal">
        <lane id=":1285279092_8_0" index="0" disallow="tram rail_urban rail rail_electric rail_fast ship" speed="3.65" length="2.34" shape="1751.99,3155.07 1751.65,3156.47 1751.03,3157.12"/>
    </edge>
    <edge id=":1285279092_11" function="internal">
        <lane id=":1285279092_11_0" index="0" disallow="tram rail_urban rail rail_electric rail_fast ship" speed="3.65" length="2.34" shape="1751.03,3157.12 1750.14,3157.02 1748.98,3156.16"/>
    </edge>
    <edge id=":1285279259_0" function="internal">
        <lane id=":1285279259_0_0" index="0" disallow="tram rail_urban rail rail_electric rail_fast ship" speed="7.07" length="3.08" shape="1960.43,3912.76 1959.74,3913.34 1959.20,3913.68 1958.59,3913.85 1957.69,3913.95"/>
    </edge>
    <edge id=":1285279259_1" function="internal">
        <lane id=":1285279259_1_0" index="0" disallow="tram rail_urban rail rail_electric rail_fast ship" speed="4.43" length="1.03" shape="1957.39,3910.77 1957.69,3910.73 1957.90,3910.67 1958.08,3910.56 1958.31,3910.37"/>
    </edge>
    <edge id=":1285279291_0" function="internal">
        <lane id=":1285279291_0_0" index="0" disallow="tram rail_urban rail rail_electric rail_fast ship" speed="13.89" length="0.13" shape="2003.36,3894.57 2003.23,3894.58"/>
    </edge>
    <edge id=":1285279291_1" function="internal">
        <lane id=":1285279291_1_0" index="0" disallow="tram rail_urban rail rail_electric rail_fast ship" speed="13.89" length="0.39" shape="2002.97,3891.39 2003.36,3891.37"/>
    </edge>
    <edge id=":1285279306_0" function="internal">
        <lane id=":1285279306_0_0" index="0" disallow="tram rail_urban rail rail_electric rail_fast ship" speed="13.89" length="0.15" shape="1981.13,3080.15 1981.08,3080.14 1981.05,3080.14 1981.02,3080.14 1980.98,3080.14"/>
    </edge>
    <edge id=":1285279306_1" function="internal">
        <lane id=":1285279306_1_0" index="0" disallow="tram rail_urban rail rail_electric rail_fast ship" speed="13.89" length="0.46" shape="1981.01,3076.94 1981.15,3076.94 1981.24,3076.95 1981.33,3076.95 1981.47,3076.97"/>
    </edge>
    <edge id=":1285279649_0" function="internal">
        <lane id=":1285279649_0_0" index="0" disallow="tram rail_urban rail rail_electric rail_fast ship" speed="13.89" length="12.04" shape="1746.75,3314.65 1745.69,3311.50 1744.59,3308.97 1743.04,3306.76 1740.63,3304.56"/>
    </edge>
    <edge id=":1285279649_1" function="internal">
        <lane id=":1285279649_1_0" index="0" disallow="tram rail_urban rail rail_electric rail_fast ship" speed="8.16" length="4.62" shape="1746.75,3314.65 1746.31,3311.34 1746.72,3310.13"/>
    </edge>
    <edge id=":1285279649_2" function="internal">
        <lane id=":1285279649_2_0" index="0" disallow="tram rail_urban rail rail_electric rail_fast ship" speed="3.65" length="2.34" shape="1746.75,3314.65 1747.14,3313.26 1747.77,3312.63"/>
    </edge>
    <edge id=":1285279649_9" function="internal">
        <lane id=":1285279649_9_0" index="0" disallow="tram rail_urban rail rail_electric rail_fast ship" speed="8.16" length="9.56" shape="1746.72,3310.13 1747.30,3308.46 1749.73,3306.02 1753.59,3304.02"/>
    </edge>
    <edge id=":1285279649_10" function="internal">
        <lane id=":1285279649_10_0" index="0" disallow="tram rail_urban rail rail_electric rail_fast ship" speed="3.65" length="2.34" shape="1747.77,3312.63 1748.66,3312.76 1749.79,3313.65"/>
    </edge>
    <edge id=":1285279649_3" function="internal">
        <lane id=":1285279649_3_0" index="0" disallow="tram rail_urban rail rail_electric rail_fast ship" speed="6.44" length="8.45" shape="1753.89,3307.33 1751.58,3308.53 1750.13,3309.98 1749.53,3311.69 1749.79,3313.65"/>
    </edge>
    <edge id=":1285279649_4" function="internal">
        <lane id=":1285279649_4_0" index="0" disallow="tram rail_urban rail rail_electric rail_fast ship" speed="10.29" length="14.18" shape="1753.89,3307.33 1750.65,3308.10 1747.36,3307.90 1744.02,3306.72 1740.63,3304.56"/>
    </edge>
    <edge id=":1285279649_5" function="internal">
        <lane id=":1285279649_5_0" index="0" disallow="tram rail_urban rail rail_electric rail_fast ship" speed="3.70" length="4.86" shape="1753.89,3307.33 1752.57,3306.62 1752.08,3305.83 1752.42,3304.96 1753.59,3304.02"/>
    </edge>
    <edge id=":1285279649_6" function="internal">
        <lane id=":1285279649_6_0" index="0" disallow="tram rail_urban rail rail_electric rail_fast ship" speed="9.39" length="11.71" shape="1742.59,3302.03 1745.30,3303.72 1748.04,3304.61 1750.80,3304.71 1753.59,3304.02"/>
    </edge>
    <edge id=":1285279649_7" function="internal">
        <lane id=":1285279649_7_0" index="0" disallow="tram rail_urban rail rail_electric rail_fast ship" speed="13.89" length="13.89" shape="1742.59,3302.03 1745.17,3304.47 1747.09,3307.21 1748.56,3310.26 1749.79,3313.65"/>
    </edge>
    <edge id=":1285279649_8" function="internal">
        <lane id=":1285279649_8_0" index="0" disallow="tram rail_urban rail rail_electric rail_fast ship" speed="3.65" length="2.47" shape="1742.59,3302.03 1743.05,3303.40 1742.88,3304.28 1742.76,3304.34"/>
    </edge>
    <edge id=":1285279649_11" function="internal">
        <lane id=":1285279649_11_0" index="0" disallow="tram rail_urban rail rail_electric rail_fast ship" speed="3.65" length="2.20" shape="1742.76,3304.34 1742.07,3304.67 1740.63,3304.56"/>
    </edge>
    <edge id=":13092607905_0" function="internal">
        <lane id=":13092607905_0_0" index="0" disallow="tram rail_urban rail rail_electric rail_fast ship" speed="13.89" length="0.31" shape="1563.00,1345.34 1562.69,1345.33"/>
    </edge>
    <edge id=":13092607905_1" function="internal">
        <lane id=":13092607905_1_0" index="0" disallow="tram rail_urban rail rail_electric rail_fast ship" speed="13.89" length="0.29" shape="1562.79,1342.13 1563.08,1342.14"/>
    </edge>
    <edge id=":13123627671_0" function="internal">
        <lane id=":13123627671_0_0" index="0" disallow="tram rail_urban rail rail_electric rail_fast ship" speed="13.89" length="0.10" shape="1396.11,1873.89 1396.11,1873.89"/>
    </edge>
    <edge id=":13123627671_1" function="internal">
        <lane id=":13123627671_1_0" index="0" disallow="tram rail_urban rail rail_electric rail_fast ship" speed="13.89" length="0.10" shape="1396.40,1870.70 1396.40,1870.70"/>
    </edge>
    <edge id=":13123650049_0" function="internal">
        <lane id=":13123650049_0_0" index="0" disallow="tram rail_urban rail rail_electric rail_fast ship" speed="13.89" length="0.10" shape="1418.75,1875.91 1418.75,1875.91"/>
    </edge>
    <edge id=":13123650049_1" function="internal">
        <lane id=":13123650049_1_0" index="0" disallow="tram rail_urban rail rail_electric rail_fast ship" speed="13.89" length="0.10" shape="1419.04,1872.72 1419.04,1872.72"/>
    </edge>
    <edge id=":13124059166_0" function="internal">
        <lane id=":13124059166_0_0" index="0" disallow="tram rail_urban rail rail_electric rail_fast ship" speed="13.89" length="0.10" shape="1449.80,2071.01 1449.80,2071.01"/>
    </edge>
    <edge id=":13124059166_1" function="internal">
        <lane id=":13124059166_1_0" index="0" disallow="tram rail_urban rail rail_electric rail_fast ship" speed="13.89" length="0.10" shape="1446.61,2070.71 1446.61,2070.71"/>
    </edge>
    <edge id=":13124070545_0" function="internal">
        <lane id=":13124070545_0_0" index="0" disallow="tram rail_urban rail rail_electric rail_fast ship" speed="13.89" length="0.10" shape="1388.26,2165.06 1388.26,2165.06"/>
    </edge>
    <edge id=":13124070545_1" function="internal">
        <lane id=":13124070545_1_0" index="0" disallow="tram rail_urban rail rail_electric rail_fast ship" speed="13.89" length="0.10" shape="1387.76,2161.90 1387.76,2161.90"/>
    </edge>
    <edge id=":13124079304_0" function="internal">
        <lane id=":13124079304_0_0" index="0" disallow="tram rail_urban rail rail_electric rail_fast ship" speed="13.89" length="1.32" shape="1441.45,2156.02 1441.59,2154.70"/>
    </edge>
    <edge id=":13124079304_1" function="internal">
        <lane id=":13124079304_1_0" index="0" disallow="tram rail_urban rail rail_electric rail_fast ship" speed="13.89" length="1.32" shape="1438.41,2154.37 1438.27,2155.69"/>
    </edge>
    <edge id=":13124816537_0" function="internal">
        <lane id=":13124816537_0_0" index="0" disallow="tram rail_urban rail rail_electric rail_fast ship" speed="13.89" length="0.30" shape="1505.91,1916.51 1505.89,1916.81"/>
    </edge>
    <edge id=":13124816537_1" function="internal">
        <lane id=":13124816537_1_0" index="0" disallow="tram rail_urban rail rail_electric rail_fast ship" speed="13.89" length="0.30" shape="1502.69,1916.58 1502.72,1916.28"/>
    </edge>
    <edge id=":13131474500_0" function="internal">
        <lane id=":13131474500_0_0" index="0" disallow="tram rail_urban rail rail_electric rail_fast ship" speed="13.89" length="0.10" shape="1470.29,1358.83 1470.29,1358.83"/>
    </edge>
    <edge id=":13131474500_1" function="internal">
        <lane id=":13131474500_1_0" index="0" disallow="tram rail_urban rail rail_electric rail_fast ship" speed="13.89" length="0.10" shape="1470.37,1355.63 1470.37,1355.63"/>
    </edge>
    <edge id=":13131554660_0" function="internal">
        <lane id=":13131554660_0_0" index="0" disallow="tram rail_urban rail rail_electric rail_fast ship" speed="13.89" length="0.10" shape="1602.36,1362.12 1602.36,1362.12"/>
    </edge>
    <edge id=":13131554660_1" function="internal">
        <lane id=":13131554660_1_0" index="0" disallow="tram rail_urban rail rail_electric rail_fast ship" speed="13.89" length="0.10" shape="1602.44,1358.92 1602.44,1358.92"/>
    </edge>
    <edge id=":13161051309_0" function="internal">
        <lane id=":13161051309_0_0" index="0" disallow="tram rail_urban rail rail_electric rail_fast ship" speed="3.65" length="4.67" shape="1208.87,1285.79 1208.59,1287.20 1208.01,1287.88 1207.12,1287.82 1205.92,1287.02"/>
    </edge>
    <edge id=":13161051322_0" function="internal">
        <lane id=":13161051322_0_0" index="0" disallow="tram rail_urban rail rail_electric rail_fast ship" speed="13.89" length="0.31" shape="1344.42,1391.16 1344.42,1391.47"/>
    </edge>
    <edge id=":13161051322_1" function="internal">
        <lane id=":13161051322_1_0" index="0" disallow="tram rail_urban rail rail_electric rail_fast ship" speed="13.89" length="0.27" shape="1341.22,1391.39 1341.22,1391.12"/>
    </edge>
    <edge id=":13161051437_0" function="internal">
        <lane id=":13161051437_0_0" index="0" disallow="tram rail_urban rail rail_electric rail_fast ship" speed="13.89" length="0.10" shape="1674.05,1082.15 1674.05,1082.15"/>
    </edge>
    <edge id=":13161051437_1" function="internal">
        <lane id=":13161051437_1_0" index="0" disallow="tram rail_urban rail rail_electric rail_fast ship" speed="13.89" length="0.10" shape="1674.15,1078.95 1674.15,1078.95"/>
    </edge>
    <edge id=":13161051446_0" function="internal">
        <lane id=":13161051446_0_0" index="0" disallow="tram rail_urban rail rail_electric rail_fast ship" speed="13.89" length="0.50" shape="1795.93,1299.35 1796.32,1299.03"/>
    </edge>
    <edge id=":13161051446_1" function="internal">
        <lane id=":13161051446_1_0" index="0" disallow="tram rail_urban rail rail_electric rail_fast ship" speed="13.89" length="0.10" shape="1793.84,1297.00 1793.79,1296.98"/>
    </edge>
    <edge id=":13181260574_0" function="internal">
        <lane id=":13181260574_0_0" index="0" disallow="tram rail_urban rail rail_electric rail_fast ship" speed="13.89" length="0.10" shape="1843.38,2410.51 1843.38,2410.51"/>
    </edge>
    <edge id=":13181260574_1" function="internal">
        <lane id=":13181260574_1_0" index="0" disallow="tram rail_urban rail rail_electric rail_fast ship" speed="13.89" length="0.10" shape="1843.49,2407.31 1843.49,2407.31"/>
    </edge>
    <edge id=":13181262095_0" function="internal">
        <lane id=":13181262095_0_0" index="0" disallow="tram rail_urban rail rail_electric rail_fast ship" speed="13.89" length="0.10" shape="1982.71,1785.13 1982.71,1785.13"/>
    </edge>
    <edge id=":13181262095_1" function="internal">
        <lane id=":13181262095_1_0" index="0" disallow="tram rail_urban rail rail_electric rail_fast ship" speed="13.89" length="0.10" shape="1980.05,1783.35 1980.05,1783.35"/>
    </edge>
    <edge id=":13181286350_0" function="internal">
        <lane id=":13181286350_0_0" index="0" disallow="tram rail_urban rail rail_electric rail_fast ship" speed="13.89" length="0.10" shape="1891.38,1325.19 1891.38,1325.19"/>
    </edge>
    <edge id=":13181286350_1" function="internal">
        <lane id=":13181286350_1_0" index="0" disallow="tram rail_urban rail rail_electric rail_fast ship" speed="13.89" length="0.10" shape="1892.73,1322.29 1892.73,1322.29"/>
    </edge>
    <edge id=":13181286351_0" function="internal">
        <lane id=":13181286351_0_0" index="0" disallow="tram rail_urban rail rail_electric rail_fast ship" speed="8.33" length="0.10" shape="2303.99,1609.32 2303.99,1609.32"/>
    </edge>
    <edge id=":13181286351_1" function="internal">
        <lane id=":13181286351_1_0" index="0" disallow="tram rail_urban rail rail_electric rail_fast ship" speed="8.33" length="0.10" shape="2300.89,1608.50 2300.89,1608.50"/>
    </edge>
    <edge id=":13181298839_0" function="internal">
        <lane id=":13181298839_0_0" index="0" disallow="tram rail_urban rail rail_electric rail_fast ship" speed="13.89" length="0.10" shape="2064.25,1282.08 2064.25,1282.08"/>
    </edge>
    <edge id=":13181298839_1" function="internal">
        <lane id=":13181298839_1_0" index="0" disallow="tram rail_urban rail rail_electric rail_fast ship" speed="13.89" length="0.10" shape="2066.48,1279.78 2066.48,1279.78"/>
    </edge>
    <edge id=":13191183225_0" function="internal">
        <lane id=":13191183225_0_0" index="0" disallow="tram rail_urban rail rail_electric rail_fast ship" speed="8.33" length="0.10" shape="1599.60,1617.00 1599.60,1617.00"/>
    </edge>
    <edge id=":13191183225_1" function="internal">
        <lane id=":13191183225_1_0" index="0" disallow="tram rail_urban rail rail_electric rail_fast ship" speed="8.33" length="0.10" shape="1600.10,1613.84 1600.10,1613.84"/>
    </edge>
    <edge id=":13191234613_0" function="internal">