<?xml version="1.0" encoding="UTF-8"?>

<!-- generated on 12/17/25 17:39:53 by Eclipse SUMO polyconvert Version 1.5.0
<configuration xmlns:xsi="http://www.w3.org/2001/XMLSchema-instance" xsi:noNamespaceSchemaLocation="http://sumo.dlr.de/xsd/polyconvertConfiguration.xsd">

    <input>
        <net-file value="olching.net.xml"/>
        <osm-files value="olching_raw.osm"/>
    </input>

    <output>
        <output-file value="olching.poly.xml"/>
    </output>

    <processing>
        <poi-layer-offset value="5"/>
    </processing>

</configuration>
-->

<additional xmlns:xsi="http://www.w3.org/2001/XMLSchema-instance" xsi:noNamespaceSchemaLocation="http://sumo.dlr.de/xsd/additional_file.xsd">
    <location netOffset="-669592.92,-5338520.18" convBoundary="0.00,-128.21,9011.72,6718.87" origBoundary="11.282103,48.174853,11.403973,48.236488" projParameter="+proj=utm +zone=32 +ellps=WGS84 +datum=WGS84 +units=m +no_defs"/>

    <poly id="1006678589" type="building" color="255,230,230" fill="1" layer="-1.00" shape="3732.315691,5651.305611 3730.196500,5653.777530 3736.391739,5659.038505 3738.511269,5656.555474 3732.315691,5651.305611"/>
    <poly id="1006678590" type="building" color="255,230,230" fill="1" layer="-1.00" shape="3629.498797,5375.926408 3632.330960,5378.370776 3634.033305,5376.408997 3631.201141,5373.964627 3629.498797,5375.926408"/>
    <poly id="1006678591" type="building" color="255,230,230" fill="1" layer="-1.00" shape="3625.009865,5371.985565 3627.842032,5374.429931 3629.506231,5372.500365 3626.673726,5370.067112 3625.009865,5371.985565"/>
    <poly id="1006678592" type="building" color="255,230,230" fill="1" layer="-1.00" shape="3620.541518,5368.100973 3623.373689,5370.545337 3625.022359,5368.637546 3622.189850,5366.204295 3620.541518,5368.100973"/>
    <poly id="1006678593" type="building" color="255,230,230" fill="1" layer="-1.00" shape="3615.950628,5364.090296 3618.783141,5366.523543 3620.400754,5364.659305 3617.568579,5362.214942 3615.950628,5364.090296"/>
    <poly id="1006678594" type="building" color="255,230,230" fill="1" layer="-1.00" shape="3611.534592,5360.196176 3614.366770,5362.640535 3615.945901,5360.819623 3613.113722,5358.375264 3611.534592,5360.196176"/>
    <poly id="1006678595" type="building" color="255,230,230" fill="1" layer="-1.00" shape="3607.045972,5356.244234 3609.878492,5358.677477 3611.411376,5356.910781 3608.579193,5354.466423 3607.045972,5356.244234"/>
    <poly id="1006678596" type="building" color="255,230,230" fill="1" layer="-1.00" shape="3602.451688,5352.344709 3605.283874,5354.789063 3606.847813,5352.978812 3604.015289,5350.545571 3602.451688,5352.344709"/>
    <poly id="1006678597" type="building" color="255,230,230" fill="1" layer="-1.00" shape="3598.497088,5348.920708 3601.329277,5351.365060 3602.885452,5349.565696 3600.053262,5347.121343 3598.497088,5348.920708"/>
    <poly id="1006678598" type="building" color="255,230,230" fill="1" layer="-1.00" shape="3575.408066,5328.640890 3578.240276,5331.085230 3579.803875,5329.286086 3576.971665,5326.841745 3575.408066,5328.640890"/>
    <poly id="1006678599" type="building" color="255,230,230" fill="1" layer="-1.00" shape="3570.915347,5324.822346 3573.747561,5327.266684 3575.334451,5325.434873 3572.502237,5322.990534 3570.915347,5324.822346"/>
    <poly id="1006678600" type="building" color="255,230,230" fill="1" layer="-1.00" shape="3543.662512,5301.390446 3546.495086,5303.823656 3548.019861,5302.078946 3545.187624,5299.634621 3543.662512,5301.390446"/>
    <poly id="1006678601" type="building" color="255,230,230" fill="1" layer="-1.00" shape="3548.113745,5305.107589 3550.946316,5307.540801 3552.409655,5305.860972 3549.577422,5303.416645 3548.113745,5305.107589"/>
    <poly id="1006678602" type="building" color="255,230,230" fill="1" layer="-1.00" shape="3552.764480,5309.108899 3555.596709,5311.553227 3557.060386,5309.862285 3554.228157,5307.417956 3552.764480,5309.108899"/>
    <poly id="1006678603" type="building" color="255,230,230" fill="1" layer="-1.00" shape="3434.844343,5400.408498 3499.868284,5361.778308 3477.705188,5324.696041 3412.681009,5363.326488 3434.844343,5400.408498"/>
    <poly id="1006678604" type="building" color="255,230,230" fill="1" layer="-1.00" shape="3495.459268,5389.733180 3499.674661,5384.810723 3497.986474,5383.368953 3493.771082,5388.291412 3495.459268,5389.733180"/>
    <poly id="1006678605" type="building" color="255,230,230" fill="1" layer="-1.00" shape="3483.175326,5404.077718 3488.415850,5397.951575 3486.502843,5396.324998 3481.255230,5402.439803 3483.175326,5404.077718"/>
    <poly id="1006678606" type="building" color="255,230,230" fill="1" layer="-1.00" shape="3475.592533,5412.924962 3479.761648,5408.056709 3477.776403,5406.361196 3473.599524,5411.240340 3475.592533,5412.924962"/>
    <poly id="1006678607" type="building" color="255,230,230" fill="1" layer="-1.00" shape="3544.875674,5399.520823 3511.457412,5371.062837 3499.674661,5384.810723 3495.459268,5389.733180 3488.415850,5397.951575 3483.175326,5404.077718 3479.761648,5408.056709 3475.592533,5412.924962 3463.239489,5427.345310 3496.665049,5455.803243 3544.875674,5399.520823"/>
    <poly id="1006678620" type="building" color="255,230,230" fill="1" layer="-1.00" shape="3865.516327,5173.463419 3868.228681,5175.448164 3870.608735,5172.227770 3867.896380,5170.243023 3865.516327,5173.463419"/>
    <poly id="1006678621" type="building" color="255,230,230" fill="1" layer="-1.00" shape="3869.260506,5170.851851 3871.432413,5172.519805 3873.730427,5169.552775 3871.565947,5167.885046 3869.260506,5170.851851"/>
    <poly id="1006678622" type="building" color="255,230,230" fill="1" layer="-1.00" shape="3932.648498,4956.757858 3938.032857,4947.399297 3935.797054,4946.118727 3932.987382,4950.994670 3927.989486,4948.139418 3925.414804,4952.622040 3932.648498,4956.757858"/>
    <poly id="1006678623" type="building" color="255,230,230" fill="1" layer="-1.00" shape="3919.724881,4927.063353 3924.695122,4929.851010 3927.146922,4925.498140 3922.169252,4922.710255 3919.724881,4927.063353"/>
    <poly id="1006678624" type="building" color="255,230,230" fill="1" layer="-1.00" shape="3925.317366,4906.953942 3930.662682,4909.875381 3935.392107,4901.275590 3930.046785,4898.354146 3925.317366,4906.953942"/>
    <poly id="1006678625" type="building" color="255,230,230" fill="1" layer="-1.00" shape="3925.317366,4906.953942 3923.082309,4911.024175 3928.427622,4913.945612 3930.662682,4909.875381 3925.317366,4906.953942"/>
    <poly id="1006678626" type="building" color="255,230,230" fill="1" layer="-1.00" shape="3944.381869,4921.973267 3944.681680,4921.403927 3946.820701,4920.734807 3947.647443,4921.171559 3946.478595,4923.182862 3944.381869,4921.973267"/>
    <poly id="1006678627" type="building" color="255,230,230" fill="1" layer="-1.00" shape="3971.559524,4914.178920 3975.444418,4916.477499 3978.860170,4910.741200 3974.967846,4908.442393 3971.559524,4914.178920"/>
    <poly id="1006678628" type="building" color="255,230,230" fill="1" layer="-1.00" shape="4033.443719,4955.553629 4034.436310,4954.449168 4028.812710,4949.438915 4027.820119,4950.543376 4033.443719,4955.553629"/>
    <poly id="1006678629" type="building" color="255,230,230" fill="1" layer="-1.00" shape="4023.832046,4946.995699 4024.516730,4946.237841 4018.762810,4941.112389 4018.085552,4941.870473 4023.832046,4946.995699"/>
    <poly id="1006678630" type="building" color="255,230,230" fill="1" layer="-1.00" shape="4011.238897,4935.766204 4011.846605,4935.094996 4005.397935,4929.347701 4004.789889,4930.030023 4011.238897,4935.766204"/>
    <poly id="1006678631" type="building" color="255,230,230" fill="1" layer="-1.00" shape="3988.409592,4929.653855 3993.103785,4924.412568 3991.627232,4923.099462 3986.925612,4928.340525 3988.409592,4929.653855"/>
    <poly id="1006678632" type="building" color="255,230,230" fill="1" layer="-1.00" shape="4112.640596,4912.956188 4114.884422,4914.949027 4118.516920,4910.888049 4116.280520,4908.895435 4112.640596,4912.956188"/>
    <poly id="1006678633" type="building" color="255,230,230" fill="1" layer="-1.00" shape="4113.572953,4922.373485 4117.612240,4918.380517 4113.745754,4914.502750 4109.713556,4918.507061 4113.572953,4922.373485"/>
    <poly id="1006678634" type="building" color="255,230,230" fill="1" layer="-1.00" shape="4104.591864,4923.623997 4108.144324,4919.749688 4103.935174,4915.894865 4100.375288,4919.768950 4104.591864,4923.623997"/>
    <poly id="1006678635" type="building" color="255,230,230" fill="1" layer="-1.00" shape="4063.920833,4864.294532 4071.762283,4858.236934 4050.944504,4831.461057 4044.153702,4836.705223 4052.194939,4846.795014 4051.036917,4847.716448 4058.133258,4856.854168 4063.920833,4864.294532"/>
    <poly id="1006678636" type="building" color="255,230,230" fill="1" layer="-1.00" shape="4022.572997,4832.788879 4021.140819,4834.169194 4024.945976,4838.111770 4030.375221,4832.904007 4026.570064,4828.961427 4022.572997,4832.788879"/>
    <poly id="1006678637" type="building" color="255,230,230" fill="1" layer="-1.00" shape="4027.259144,4828.303821 4023.886418,4824.808253 4019.207697,4829.293540 4022.572997,4832.788879 4026.570064,4828.961427 4027.259144,4828.303821"/>
    <poly id="1006678638" type="building" color="255,230,230" fill="1" layer="-1.00" shape="4027.259144,4828.303821 4036.708439,4819.247064 4031.022636,4813.344981 4021.573342,4822.401747 4023.886418,4824.808253 4027.259144,4828.303821"/>
    <poly id="1006678639" type="building" color="255,230,230" fill="1" layer="-1.00" shape="3963.709174,4798.136344 3960.127841,4792.943580 3955.139625,4796.362695 3958.720959,4801.555456 3963.709174,4798.136344"/>
    <poly id="1006678640" type="building" color="255,230,230" fill="1" layer="-1.00" shape="3966.366130,4797.305001 3961.972930,4790.941731 3959.778788,4792.443491 3960.127841,4792.943580 3963.709174,4798.136344 3964.171989,4798.806759 3966.366130,4797.305001"/>
    <poly id="1006678641" type="building" color="255,230,230" fill="1" layer="-1.00" shape="3893.076776,4800.136929 3897.702520,4801.301058 3900.077380,4796.790096 3894.285911,4795.334650 3893.076776,4800.136929"/>
    <poly id="1006678642" type="building" color="255,230,230" fill="1" layer="-1.00" shape="3867.394903,4790.267333 3871.573667,4791.707078 3872.307010,4789.593522 3868.128245,4788.153777 3867.394903,4790.267333"/>
    <poly id="1006678643" type="building" color="255,230,230" fill="1" layer="-1.00" shape="3863.036406,4772.736443 3859.133439,4771.516453 3854.916375,4784.537092 3876.294099,4779.491581 3877.035219,4777.122404 3863.036406,4772.736443"/>
    <poly id="1006678644" type="building" color="255,230,230" fill="1" layer="-1.00" shape="3926.311732,4816.110031 3930.998836,4818.677713 3939.441900,4803.349475 3934.754787,4800.781787 3926.311732,4816.110031"/>
    <poly id="1006678645" type="building" color="255,230,230" fill="1" layer="-1.00" shape="3913.733751,4809.742546 3919.002201,4812.505890 3926.631248,4798.031690 3921.355021,4795.279227 3919.106417,4799.549288 3913.733751,4809.742546"/>
    <poly id="1006678646" type="building" color="255,230,230" fill="1" layer="-1.00" shape="3895.578029,4825.932309 3896.098735,4831.054185 3907.350583,4829.939159 3906.830224,4824.806168 3895.578029,4825.932309"/>
    <poly id="1006678647" type="building" color="255,230,230" fill="1" layer="-1.00" shape="3871.901334,4860.865465 3875.162354,4865.102869 3877.727791,4863.857105 3876.352618,4858.720368 3871.901334,4860.865465"/>
    <poly id="1006678648" type="building" color="255,230,230" fill="1" layer="-1.00" shape="3983.466585,4875.895533 3991.836042,4867.873778 3984.211207,4859.977106 3978.751645,4865.206236 3981.828654,4868.403547 3978.926525,4871.185293 3983.466585,4875.895533"/>
    <poly id="1006678649" type="building" color="255,230,230" fill="1" layer="-1.00" shape="3990.674410,4884.791824 4003.152310,4872.701269 3998.762482,4868.184698 3986.276817,4880.286151 3990.674410,4884.791824"/>
    <poly id="1006678650" type="building" color="255,230,230" fill="1" layer="-1.00" shape="3843.192331,4980.134458 3848.706743,4983.116586 3850.675350,4979.494319 3845.081934,4976.665527 3843.192331,4980.134458"/>
    <poly id="1006678651" type="building" color="255,230,230" fill="1" layer="-1.00" shape="3834.093497,5036.602649 3848.564498,5044.507078 3851.476022,5039.211474 3847.834558,5037.220735 3837.005349,5031.295924 3834.093497,5036.602649"/>
    <poly id="1006678652" type="building" color="255,230,230" fill="1" layer="-1.00" shape="3958.988148,4966.480948 3963.825664,4969.231230 3965.364546,4966.541486 3960.527367,4963.780089 3958.988148,4966.480948"/>
    <poly id="1006678653" type="building" color="255,230,230" fill="1" layer="-1.00" shape="3972.749089,4970.848812 3966.618937,4980.529500 3972.862768,4984.457263 3978.992927,4974.776581 3972.749089,4970.848812"/>
    <poly id="1006678654" type="building" color="255,230,230" fill="1" layer="-1.00" shape="3979.544565,4974.481889 3985.011666,4977.306971 3989.252272,4969.137317 3983.258808,4967.241776 3979.544565,4974.481889"/>
    <poly id="1006678655" type="building" color="255,230,230" fill="1" layer="-1.00" shape="3964.241119,4958.998414 3967.652305,4949.746700 3960.292963,4947.053170 3956.882127,4956.293774 3964.241119,4958.998414"/>
    <poly id="1006678656" type="building" color="255,230,230" fill="1" layer="-1.00" shape="3967.072747,4960.486239 3971.131871,4949.485484 3968.154377,4948.393692 3967.652305,4949.746700 3964.241119,4958.998414 3964.095259,4959.394450 3967.072747,4960.486239"/>
    <poly id="1006678657" type="building" color="255,230,230" fill="1" layer="-1.00" shape="4026.107994,4974.308348 4024.540407,4976.719096 4030.401726,4980.512912 4031.969314,4978.102165 4026.107994,4974.308348"/>
    <poly id="1006678658" type="building" color="255,230,230" fill="1" layer="-1.00" shape="4026.107994,4974.308348 4031.969314,4978.102165 4062.013063,4997.516517 4070.069511,4985.124628 4048.832383,4971.406994 4052.240721,4966.159979 4041.414335,4959.166932 4032.476381,4972.922561 4028.627007,4970.435908 4026.107994,4974.308348"/>
    <poly id="1006678659" type="building" color="255,230,230" fill="1" layer="-1.00" shape="4091.115153,4980.959780 4089.607594,4979.445466 4087.622755,4981.398521 4085.891728,4979.654917 4083.002081,4982.514861 4086.240668,4985.772777 4091.115153,4980.959780"/>
    <poly id="1006678660" type="building" color="255,230,230" fill="1" layer="-1.00" shape="4061.400291,4960.509606 4064.963303,4964.099991 4067.868140,4961.229376 4065.797846,4959.152845 4067.644938,4957.329080 4066.144454,4955.826112 4061.400291,4960.509606"/>
    <poly id="1006678661" type="building" color="255,230,230" fill="1" layer="-1.00" shape="4074.331107,4964.062619 4072.902866,4962.628595 4071.086497,4964.419921 4069.355460,4962.676322 4066.481684,4965.503385 4069.640623,4968.692120 4074.331107,4964.062619"/>
    <poly id="1006678662" type="building" color="255,230,230" fill="1" layer="-1.00" shape="4069.640623,4968.692120 4073.319410,4972.386154 4076.239441,4969.504882 4074.176580,4967.428573 4075.939268,4965.691235 4074.331107,4964.062619 4069.640623,4968.692120"/>
    <poly id="1006678663" type="building" color="255,230,230" fill="1" layer="-1.00" shape="4082.661875,4972.448144 4081.233638,4971.014118 4079.348396,4972.870089 4077.617364,4971.126488 4074.751014,4973.953773 4077.909944,4977.142513 4082.661875,4972.448144"/>
    <poly id="1006678664" type="building" color="255,230,230" fill="1" layer="-1.00" shape="4077.909944,4977.142513 4081.588382,4980.847667 4084.508751,4977.955285 4082.445896,4975.878973 4084.277458,4974.076989 4082.661875,4972.448144 4077.909944,4977.142513"/>
    <poly id="1006678665" type="building" color="255,230,230" fill="1" layer="-1.00" shape="4113.992764,4953.745649 4118.071516,4949.920748 4114.233089,4945.854721 4110.154338,4949.679624 4113.992764,4953.745649"/>
    <poly id="1006678666" type="building" color="255,230,230" fill="1" layer="-1.00" shape="4107.731216,4965.291079 4111.540533,4961.769449 4102.218748,4951.751803 4098.417196,4955.262551 4107.731216,4965.291079"/>
    <poly id="1006678667" type="building" color="255,230,230" fill="1" layer="-1.00" shape="4113.540101,4990.820253 4117.721827,4994.841116 4122.568288,4998.515128 4127.701787,5001.063208 4132.970002,5003.337290 4138.650799,5005.000983 4144.681060,5005.930000 4150.552710,5006.208982 4156.772475,5005.797745 4162.264807,5004.619025 4167.666752,5002.503116 4166.519884,4999.642604 4161.410656,5001.422579 4156.114786,5002.740776 4150.443934,5003.190984 4144.938210,5003.101138 4139.528761,5002.291150 4134.198720,5000.582518 4128.902129,4998.507808 4123.995498,4995.833145 4119.414354,4992.478694 4115.539124,4988.889887 4113.945915,4990.432138 4113.540101,4990.820253"/>
    <poly id="1006678668" type="building" color="255,230,230" fill="1" layer="-1.00" shape="4113.945915,4990.432138 4115.539124,4988.889887 4116.029342,4988.415349 4108.576999,4980.723981 4106.493910,4982.729659 4113.945915,4990.432138"/>
    <poly id="1006678669" type="building" color="255,230,230" fill="1" layer="-1.00" shape="4181.703082,5005.389230 4185.472058,5003.924415 4183.103301,4999.202284 4179.793461,5000.480853 4181.703082,5005.389230"/>
    <poly id="1006678670" type="building" color="255,230,230" fill="1" layer="-1.00" shape="4093.756152,4993.588405 4097.083510,4996.860156 4099.944126,4993.977086 4098.262726,4992.312859 4100.127042,4990.411759 4098.481084,4988.804233 4093.756152,4993.588405"/>
    <poly id="1006678671" type="building" color="255,230,230" fill="1" layer="-1.00" shape="4171.115113,5011.073765 4169.271139,5011.818536 4170.244180,5014.284402 4167.414415,5015.421863 4168.934905,5019.194826 4173.623495,5017.313049 4171.115113,5011.073765"/>
    <poly id="1006678672" type="building" color="255,230,230" fill="1" layer="-1.00" shape="4158.466809,5021.189768 4163.631283,5020.523904 4163.114799,5016.492298 4160.241557,5016.860861 4159.905217,5014.236405 4157.622424,5014.500590 4158.466809,5021.189768"/>
    <poly id="1006678673" type="building" color="255,230,230" fill="1" layer="-1.00" shape="4157.622424,5014.500590 4155.621515,5014.784488 4155.957857,5017.408944 4153.472846,5017.722592 4153.996763,5021.754424 4158.466809,5021.189768 4157.622424,5014.500590"/>
    <poly id="1006678674" type="building" color="255,230,230" fill="1" layer="-1.00" shape="4143.292563,5021.495092 4148.484625,5021.875739 4148.779018,5017.824338 4145.885909,5017.624965 4146.079582,5014.927660 4143.780286,5014.757501 4143.292563,5021.495092"/>
    <poly id="1006678675" type="building" color="255,230,230" fill="1" layer="-1.00" shape="4143.780286,5014.757501 4141.777728,5014.607505 4141.584396,5017.293696 4139.092001,5017.117656 4138.797276,5021.180171 4143.292563,5021.495092 4143.780286,5014.757501"/>
    <poly id="1006678676" type="building" color="255,230,230" fill="1" layer="-1.00" shape="4128.056506,5018.216550 4132.993582,5019.890959 4134.300374,5016.037260 4131.555525,5015.119331 4132.413213,5012.586868 4130.212538,5011.863503 4128.056506,5018.216550"/>
    <poly id="1006678677" type="building" color="255,230,230" fill="1" layer="-1.00" shape="4130.212538,5011.863503 4128.344720,5011.194775 4127.464753,5013.726560 4125.095291,5012.931310 4123.788844,5016.773897 4128.056506,5018.216550 4130.212538,5011.863503"/>
    <poly id="1006678678" type="building" color="255,230,230" fill="1" layer="-1.00" shape="4114.200425,5011.609419 4118.668181,5014.292956 4120.759150,5010.807991 4118.276987,5009.319606 4119.655888,5007.003253 4117.676365,5005.852782 4114.200425,5011.609419"/>
    <poly id="1006678679" type="building" color="255,230,230" fill="1" layer="-1.00" shape="4117.676365,5005.852782 4115.945633,5004.832256 4114.575514,5007.104380 4112.429233,5005.815340 4110.330841,5009.300081 4114.200425,5011.609419 4117.676365,5005.852782"/>
    <poly id="1006678680" type="building" color="255,230,230" fill="1" layer="-1.00" shape="4102.078742,5001.995962 4105.788548,5005.646467 4108.649503,5002.752288 4106.584974,5000.731537 4108.456379,4998.841779 4106.810764,4997.223137 4102.078742,5001.995962"/>
    <poly id="1006678681" type="building" color="255,230,230" fill="1" layer="-1.00" shape="4106.810764,4997.223137 4105.397055,4995.800670 4103.517885,4997.701316 4101.735218,4995.945010 4098.874263,4998.839193 4102.078742,5001.995962 4106.810764,4997.223137"/>
    <poly id="1006678682" type="building" color="255,230,230" fill="1" layer="-1.00" shape="4091.334342,5010.379079 4095.873990,5013.387391 4099.091582,5008.546193 4094.551932,5005.537878 4091.334342,5010.379079"/>
    <poly id="1006678683" type="building" color="255,230,230" fill="1" layer="-1.00" shape="4078.800525,5008.440007 4122.289609,5037.196934 4125.218878,5032.791940 4095.873990,5013.387391 4091.334342,5010.379079 4081.737198,5004.035217 4078.800525,5008.440007"/>
    <poly id="1006678684" type="building" color="255,230,230" fill="1" layer="-1.00" shape="3927.216761,5166.563282 3934.646479,5173.775383 3941.337300,5166.915049 3933.899815,5159.713827 3927.216761,5166.563282"/>
    <poly id="1006678685" type="building" color="255,230,230" fill="1" layer="-1.00" shape="3810.408775,4917.064281 3812.021884,4913.642554 3809.199982,4912.321969 3807.587211,4915.732583 3810.408775,4917.064281"/>
    <poly id="1006678686" type="building" color="255,230,230" fill="1" layer="-1.00" shape="3810.782809,4917.720859 3809.352687,4920.747676 3812.013218,4921.996610 3813.443004,4918.980908 3810.782809,4917.720859"/>
    <poly id="1006678687" type="building" color="255,230,230" fill="1" layer="-1.00" shape="3788.036324,5079.076427 3788.181783,5080.649369 3789.739731,5080.507619 3790.066423,5083.943822 3798.654209,5083.148096 3798.189831,5078.128060 3788.036324,5079.076427"/>
    <poly id="1006678688" type="building" color="255,230,230" fill="1" layer="-1.00" shape="3785.208896,5099.459112 3774.794817,5100.421827 3775.131977,5104.002963 3785.538623,5103.040023 3785.208896,5099.459112"/>
    <poly id="1006678689" type="building" color="255,230,230" fill="1" layer="-1.00" shape="4093.945865,5118.442110 4066.409429,5094.587428 4060.662948,5101.187149 4088.199371,5125.041803 4093.945865,5118.442110"/>
    <poly id="1006678690" type="building" color="255,230,230" fill="1" layer="-1.00" shape="4008.074596,5118.608711 4016.546111,5109.666797 4013.453377,5106.747086 4004.974436,5115.688778 4008.074596,5118.608711"/>
    <poly id="1006678691" type="building" color="255,230,230" fill="1" layer="-1.00" shape="3994.647631,5135.031065 4005.138646,5123.970244 4004.004105,5122.901152 4000.101901,5119.222606 3989.603461,5130.283211 3994.647631,5135.031065"/>
    <poly id="1006678692" type="building" color="255,230,230" fill="1" layer="-1.00" shape="3903.522564,5164.963613 3904.464707,5165.759849 3909.052654,5160.337285 3908.110510,5159.541048 3903.522564,5164.963613"/>
    <poly id="1006678693" type="building" color="255,230,230" fill="1" layer="-1.00" shape="3826.379726,5087.862314 3829.359097,5081.556455 3824.441601,5079.237699 3822.559114,5083.207443 3825.277964,5084.491533 3824.173995,5086.816310 3826.379726,5087.862314"/>
    <poly id="1006678694" type="building" color="255,230,230" fill="1" layer="-1.00" shape="3797.627649,5119.114996 3804.497653,5122.494277 3807.368733,5123.905355 3809.222498,5120.146094 3799.481071,5115.366847 3797.627649,5119.114996"/>
    <poly id="1006678695" type="building" color="255,230,230" fill="1" layer="-1.00" shape="3796.283189,5139.131166 3790.724005,5136.403578 3789.187599,5139.505036 3794.746781,5142.232622 3796.283189,5139.131166"/>
    <poly id="1006678696" type="building" color="255,230,230" fill="1" layer="-1.00" shape="3711.322824,5147.995695 3720.067770,5149.852204 3721.620063,5142.557368 3720.386553,5142.297398 3720.491530,5143.001416 3712.181001,5143.972544 3711.322824,5147.995695"/>
    <poly id="1006678697" type="building" color="255,230,230" fill="1" layer="-1.00" shape="3536.609561,5005.538665 3532.477448,5002.810166 3531.129507,5004.849481 3535.261619,5007.577980 3536.609561,5005.538665"/>
    <poly id="1006678698" type="building" color="255,230,230" fill="1" layer="-1.00" shape="3531.987135,5012.595730 3527.847261,5009.878123 3526.499323,5011.917439 3530.639197,5014.635046 3531.987135,5012.595730"/>
    <poly id="1006678699" type="building" color="255,230,230" fill="1" layer="-1.00" shape="3517.501100,5002.967420 3513.361212,5000.249823 3512.013278,5002.289143 3516.153165,5005.006739 3517.501100,5002.967420"/>
    <poly id="1006678700" type="building" color="255,230,230" fill="1" layer="-1.00" shape="3522.073893,4996.075701 3517.934339,4993.346987 3516.586401,4995.386305 3520.718527,4998.114793 3522.073893,4996.075701"/>
    <poly id="1006678701" type="building" color="255,230,230" fill="1" layer="-1.00" shape="3507.533111,4986.534751 3503.393206,4983.817162 3502.045272,4985.856484 3506.185176,4988.574072 3507.533111,4986.534751"/>
    <poly id="1006678702" type="building" color="255,230,230" fill="1" layer="-1.00" shape="3503.133516,4993.598601 3499.001042,4990.881240 3497.645684,4992.920338 3501.785584,4995.637923 3503.133516,4993.598601"/>
    <poly id="1006678706" type="building" color="255,230,230" fill="1" layer="-1.00" shape="3395.443901,4968.983956 3400.235076,4971.799086 3424.882388,4929.996579 3420.090850,4927.192543 3395.443901,4968.983956"/>
    <poly id="1006678707" type="building" color="255,230,230" fill="1" layer="-1.00" shape="3410.159755,4922.764217 3399.537411,4944.312236 3404.628033,4946.813849 3415.250394,4925.265840 3410.159755,4922.764217"/>
    <poly id="1006678708" type="building" color="255,230,230" fill="1" layer="-1.00" shape="3380.012979,4966.724957 3385.335498,4968.933233 3405.970445,4919.466746 3400.655312,4917.258677 3380.012979,4966.724957"/>
    <poly id="1006678709" type="building" color="255,230,230" fill="1" layer="-1.00" shape="3582.791546,4858.765903 3584.863058,4860.808912 3586.742088,4858.908099 3584.670576,4856.865089 3582.791546,4858.765903"/>
    <poly id="1006678710" type="building" color="255,230,230" fill="1" layer="-1.00" shape="3594.054373,4856.549301 3590.939006,4853.629152 3588.296682,4856.430099 3591.412048,4859.350247 3594.054373,4856.549301"/>
    <poly id="1006678711" type="building" color="255,230,230" fill="1" layer="-1.00" shape="3594.054373,4856.549301 3597.874292,4859.034751 3599.924812,4855.893235 3596.665979,4853.780795 3594.054373,4856.549301"/>
    <poly id="1006678712" type="building" color="255,230,230" fill="1" layer="-1.00" shape="3605.820169,4848.541142 3608.331184,4846.147811 3606.039896,4843.753268 3603.528880,4846.146600 3605.820169,4848.541142"/>
    <poly id="1006678713" type="building" color="255,230,230" fill="1" layer="-1.00" shape="3590.939006,4853.629152 3594.054373,4856.549301 3596.665979,4853.780795 3602.810488,4847.281707 3599.695457,4844.350439 3590.939006,4853.629152"/>
    <poly id="1006678714" type="building" color="255,230,230" fill="1" layer="-1.00" shape="3451.108839,5008.161179 3454.240438,5002.705206 3452.413722,5001.659726 3449.282124,5007.115700 3451.108839,5008.161179"/>
    <poly id="1006678715" type="building" color="255,230,230" fill="1" layer="-1.00" shape="3465.484723,4919.258727 3463.075805,4923.190356 3474.936958,4930.402775 3477.338792,4926.459812 3465.484723,4919.258727"/>
    <poly id="1006678716" type="building" color="255,230,230" fill="1" layer="-1.00" shape="3479.453657,4846.963541 3485.819142,4850.816566 3488.855660,4845.802691 3482.497261,4841.961002 3479.453657,4846.963541"/>
    <poly id="1006678718" type="building" color="255,230,230" fill="1" layer="-1.00" shape="3498.483435,4830.098222 3501.064234,4825.648982 3497.980910,4823.875655 3495.737355,4827.745546 3496.788312,4828.389271 3496.459846,4828.924391 3498.483435,4830.098222"/>
    <poly id="1006678719" type="building" color="255,230,230" fill="1" layer="-1.00" shape="3626.345303,4900.925522 3629.128397,4896.671592 3634.063300,4889.123495 3624.819614,4883.113778 3617.094202,4894.915593 3618.916876,4896.094492 3626.345303,4900.925522"/>
    <poly id="1006678720" type="building" color="255,230,230" fill="1" layer="-1.00" shape="3625.840972,4906.761556 3631.454083,4898.177251 3629.128397,4896.671592 3626.345303,4900.925522 3618.916876,4896.094492 3616.094629,4900.413984 3625.840972,4906.761556"/>
    <poly id="1006678727" type="building" color="255,230,230" fill="1" layer="-1.00" shape="3709.460730,5064.451599 3712.577360,5059.495892 3705.544861,5055.099485 3702.428236,5060.055196 3703.763371,5060.885586 3709.460730,5064.451599"/>
    <poly id="1006678728" type="building" color="255,230,230" fill="1" layer="-1.00" shape="3695.025796,5086.917828 3689.554631,5083.492191 3688.095607,5082.580171 3684.846001,5087.754335 3691.776523,5092.080874 3695.025796,5086.917828"/>
    <poly id="1006678731" type="building" color="255,230,230" fill="1" layer="-1.00" shape="3861.030226,4923.286830 3863.951020,4924.777313 3865.902780,4920.976549 3862.060971,4921.171193 3861.030226,4923.286830"/>
    <poly id="1006678732" type="building" color="255,230,230" fill="1" layer="-1.00" shape="3859.607851,4926.058012 3862.528644,4927.548495 3863.951020,4924.777313 3861.030226,4923.286830 3859.607851,4926.058012"/>
    <poly id="1006678733" type="building" color="255,230,230" fill="1" layer="-1.00" shape="3857.648331,4929.869666 3860.964436,4931.561282 3862.923957,4927.749629 3862.528644,4927.548495 3859.607851,4926.058012 3857.648331,4929.869666"/>
    <poly id="1006678734" type="building" color="255,230,230" fill="1" layer="-1.00" shape="3851.036085,4934.874742 3853.690856,4936.312633 3857.415407,4929.462109 3854.760296,4928.035330 3851.036085,4934.874742"/>
    <poly id="1006678735" type="building" color="255,230,230" fill="1" layer="-1.00" shape="3832.425329,4946.000426 3830.806838,4948.621036 3837.469397,4952.717115 3839.088229,4950.085392 3832.425329,4946.000426"/>