<?xml version="1.0" encoding="UTF-8"?>

<!-- generated on 12/17/25 17:41:47 by Eclipse SUMO duarouter Version 1.5.0
<configuration xmlns:xsi="http://www.w3.org/2001/XMLSchema-instance" xsi:noNamespaceSchemaLocation="http://sumo.dlr.de/xsd/duarouterConfiguration.xsd">

    <input>
        <net-file value="olching.net.xml"/>
        <route-files value="trips.trips.xml"/>
    </input>

    <output>
        <output-file value="olching.trips.xml"/>
        <alternatives-output value="olching.trips.alt.xml"/>
    </output>

    <time>
        <begin value="0"/>
        <end value="3600.0"/>
    </time>

    <report>
        <no-warnings value="true"/>
        <ignore-errors value="true"/>
        <no-step-log value="true"/>
    </report>

</configuration>
-->

<routes xmlns:xsi="http://www.w3.org/2001/XMLSchema-instance" xsi:noNamespaceSchemaLocation="http://sumo.dlr.de/xsd/routes_file.xsd">
    <vehicle id="0" depart="0.00">
        <route edges="-285298538#0 -285298543#0 -115400605#2 -115400605#1 -115400605#0 -189129820 -15804354 -654798815#5 -654798815#4 -654798815#3 -654798815#2 -654798815#1 -654798815#0 -4055513#1 -4055513#0 500151746#1 4055642 -1017411193#1 1215028278 1215014759#0 1215014759#1 1215014759#2 1215014759#3 1215014759#4 1215014759#5 1215014759#6 24619422#0 24619422#1 -1217118541 -8071689#4 -8071689#3 -8071689#2 -8071689#1 -8071689#0 -8046763 -1017411194 -8046827#3 -8046827#2 -8046827#1 -8046827#0 -182436401#5 -182436401#4 -182436401#3 -182436401#2 -182436401#1 -182436401#0 182436400 4761184#6 4761184#0 4761184#1 4761184#2 182436402 -40421149#8 -40421149#7 -40421149#6 -40421149#5 -40421149#4 -40421149#3 -40421149#2 -40421149#1 -40421149#0 -1047409004#3 -1047409004#2 -1047409004#1 -1047409004#0 -1047409005#10 -1047409005#9 -1047409005#7 -1047409005#6 -1047409005#5 -1047409005#4 -1047409005#3 -1047409005#2 -1047409005#1 -1047409005#0 51362497#0 51362497#1 51362497#2 51362497#3 51362497#4 51362497#5 51362497#6 51362497#7 51362497#8 51362497#9 51362497#10 51362497#11 51362497#12 993372568#0 993372568#1 993372568#2 993372568#3 993372568#4 993372568#5 993372568#6 993372568#7 993372568#8 993372568#9 993372568#10 1017411195#0 1017411195#1 -8573134 4055985 1038206032 1038206033 51362485#0 51362485#1 51362485#2"/>
    </vehicle>
    <vehicle id="1" depart="2.00">
        <route edges="167219502#0 167219502#1 167219502#2 167219502#3 167219502#4 167219502#5 -993372568#3 -993372568#2 -993372568#1 -993372568#0 -51362497#12 -51362497#11 -51362497#10 -51362497#9 -51362497#8 -51362497#7 -51362497#6 -51362497#5 -51362497#4 -51362497#3 -51362497#2 -51362497#1 -51362497#0 40421150#0 40421150#1 40421150#2 40421150#3 40421150#4 40421150#5 40421150#6 -8573135 -38908260 -23438162 -34965825 -34965824 -23438161 -24619161#2 -24619161#1 -24619161#0 -24619160 -4055279 -6949064 -146286778#1 -146286778#0 33487079 7830057#4 7830057#5 8071268 -993372642#1 -1286805286 -4055798#1 -4055798#0 530758947#0 530758947#1 530758947#2 530758947#3 1030693862#0 1030693862#1 1030693862#2 4055638#0 4055638#1 4055638#2 4055638#3 4055638#4 4055638#5 4055638#6 4055638#7 60335554#0 60335554#1 1015036025#0 1015036025#1 29982454 292601710#4 292601710#5 292601710#6 292601710#7 292601710#0 22338260 -189129825 -22365381#4 -22365381#3 -22365381#2 -22365381#1 -1039770851 -1429520102 -1039770850#3 -1039770850#2 -1039770850#1 -1039770850#0 -6238374"/>
    </vehicle>
    <vehicle id="2" depart="4.00">
        <route edges="39765497#1 8579229 28801790 8094437 39765494#0 39765494#1 39765496#0 39765496#1 284231423#0 284231423#1 284231423#2 284231423#3 284231423#4 284231423#5 284231423#6 284231423#7 284231423#8 284231424 -51365582 -706175069 -706175070 -4055593#1 -4055593#0 -423903709 4055642 500151745 -182432263#1 -182432263#0 -1287077167 -103875698 -1287077169#2 -1287077169#1 -1287077169#0 -61402935#5 -61402935#4 -61402935#3 -61402935#2 -61402935#1 -61402935#0 -1287077168#7 -1287077168#6 -1287077168#5 -1287077168#4 -1287077168#3 -1287077168#2 -1287077168#1 -1287077168#0 -148429713#16 -148429713#15 -148429713#14 -148429713#13 -148429713#12 -148429713#11 -148429713#10 -148429713#9 -148429713#8 -148429713#7 -148429713#6 -148429713#5 -148429713#4 -148429713#3 -148429713#2 -148429713#1 -148429713#0 -61402203#7 -61402203#6 -61402203#5 -61402203#4 -61402203#3 -61402203#2 -61402203#1 -1293302878#0 -1287074903#2 -1287074903#1 -1287074903#0 -684169448#2 -684169448#1 -684169448#0 -40924776#19 -40924776#18 -40924776#17 -40924776#16 -40924776#15 -40924776#14 -40924776#13 -40924776#12 -40924776#11 -40924776#10 -40924776#9 -40924776#8 -40924776#7 -40924776#6 -40924776#5 -40924776#4 -40924776#3 -40924776#2 -40924776#1 -40924776#0 530761997#0 530761997#1 13234967#2 13234967#3"/>
    </vehicle>
    <vehicle id="3" depart="6.00">
        <route edges="60335649#10 13231416#0 13231416#1 -1286805289#2 -1286805289#1 -1286805289#0 -4055759#26 -4055759#25 -4055759#24 -4055759#23 -4055759#22 -4055759#21 -4055759#20 -4055759#19 -4055759#18 -4055759#17 -4055759#16 -4055759#15 -4055759#14 -4055759#13 -4055759#12 -4055759#11 -4055759#10 -4055759#9 -4055759#8 -4055759#7 -4055759#6 -4055759#5 -4055759#4 -4055759#3 -4055759#2 -4055759#1 -4055759#0"/>
    </vehicle>
    <vehicle id="4" depart="8.00">
        <route edges="-129014526#4 -129014526#3 -129014526#2 -129014526#1 -129014526#0 1287074908#0 1287074908#1 -1287077169#2 -1287077169#1 -1287077169#0 -61402935#5 -61402935#4 -61402935#3 -61402935#2 -61402935#1 -61402935#0 -1287077168#7 -1287077168#6 -1287077168#5 -1287077168#4 -1287077168#3 -1287077168#2 -1287077168#1 -1287077168#0 -148429713#16 -148429713#15 -148429713#14 -148429713#13 -148429713#12 -148429713#11 -148429713#10 -148429713#9 -148429713#8 -148429713#7 -148429713#6 -148429713#5 -148429713#4 -148429713#3 -148429713#2 -148429713#1 -148429713#0 -61402203#7 -61402203#6 -61402203#5 -61402203#4 -61402203#3 -61402203#2 -61402203#1 -1293302878#0 -1287074903#2 -1287074903#1 -1287074903#0 -684169448#2 -684169448#1 -684169448#0 -40924776#19 -40924776#18 -40924776#17 -40924776#16 -40924776#15 -40924776#14 -40924776#13 -40924776#12 -40924776#11 -40924776#10 -40924776#9 -40924776#8 -40924776#7 -40924776#6 -40924776#5 -40924776#4 -40924776#3 -40924776#2 -40924776#1 -40924776#0 530761997#0 530761997#1 -13234967#1 -13234967#0 -1166200244 -1166200243 -146286778#0 33487079 7830057#4 7830057#5 8071268 -993372642#1 -1286805286 -4055798#1 -4055798#0 -1286805287#4 -1286805287#3 -1286805287#2 -1286805287#1 -1286805287#0 -1286805288 -4056147#5 -4056147#4 -4056147#3 -4056147#2 -4056147#1 -4056147#0 -1292748372 4056027#2 4056027#3 -1030765626#2 -1030765626#1 -1030765626#0 -176939620#16 -176939620#15 -176939620#14 -176939620#13 -176939620#12 -176939620#11 -176939620#10 -176939620#9 -176939620#8 -176939620#7 -176939620#6 -176939620#5 -176939620#4 -176939620#3 -176939620#2 -176939620#1 -176939620#0 -176939619 -7988294#1 -7988294#0 7991005 56633182 26162741 26162742 575241093 -48617083 -575241092 -437922285 -7991040 -7991041 -967098918#2 -967098918#1 -967098918#0 -31660573#3 -31660573#2 -31660573#1 31660552#0 31660552#1 31660552#2 31660552#3 31660552#4 31660552#5 31660552#6 -31660552#6 -31660552#5 -31660552#4 -31660552#3 -31660552#2"/>
    </vehicle>
    <vehicle id="5" depart="10.00">
        <route edges="1047409004#0 1047409004#1 1047409004#2 1047409004#3 40421149#0 40421149#1 40421149#2 40421149#3 40421149#4 40421149#5 40421149#6 40421149#7 40421149#8 182436405 4761184#4 7643936 182436401#0 182436401#1 182436401#2 182436401#3 182436401#4 182436401#5 8046827#0 8046827#1 8046827#2 8046827#3 1017411194 8046763 8071689#0 8071689#1 8071689#2 8071689#3 8071689#4 1217118541 -24619422#1 -24619422#0 1215014748#0 1215014748#1 1215014748#2 1215014748#3 1215014748#4 1017411193#1 500151745 500151746#0 4055513#0 4055513#1 654798815#0 654798815#1 654798815#2 654798815#3 654798815#4 654798815#5 15804354 189129820 115400605#0 149120922#0 -149120922#0"/>
    </vehicle>
    <vehicle id="6" depart="12.00">
        <route edges="11280313#5 11280313#6 11280313#7 11280313#8 11280313#9 4761271#2 -8066897 -8066898 -7991002 -695959267 -695959268 -7991004 -23185925 -575241094 -575241093 -26162742 -26162741 -56633182 -7991005 7988294#0 7988294#1 176939619 176939620#0 176939620#1 176939620#2 176939620#3 176939620#4 176939620#5 176939620#6 176939620#7 176939620#8 176939620#9 176939620#10 176939620#11 176939620#12 176939620#13 176939620#14 176939620#15 176939620#16 1030765626#0 1030765626#1 1030765626#2 4056027#4 4056027#0 4056027#1 1292748372 4056147#0 4056147#1 4056147#2 4056147#3 4056147#4 4056147#5 1286805288 1286805287#0 1286805287#1 1286805287#2 1286805287#3 1286805287#4 4055798#0 4055798#1 1286805286 993372642#1 40924778 7830057#7 7830057#8 7830057#9 7830057#0 7830057#1 7830057#2 6949060 146286778#0 1166200243 1166200244 13234967#0 13234967#1 -530761997#1 -530761997#0 40924776#0 40924776#1 40924776#2 40924776#3 40924776#4 40924776#5 40924776#6 40924776#7 40924776#8 40924776#9 40924776#10 40924776#11 40924776#12 40924776#13 40924776#14 40924776#15 40924776#16 40924776#17 40924776#18 40924776#19 684169448#0 684169448#1 684169448#2 1287074903#0 1287074903#1 1287074903#2 1293302878#0 61402203#1 61402203#2 61402203#3 61402203#4 61402203#5 61402203#6 61402203#7 148429713#0 148429713#1 148429713#2 148429713#3 148429713#4 148429713#5 148429713#6 148429713#7 148429713#8 148429713#9 148429713#10 148429713#11 148429713#12 148429713#13 148429713#14 148429713#15 148429713#16 1287077168#0 1287077168#1 1287077168#2 1287077168#3 1287077168#4 1287077168#5 1287077168#6 1287077168#7 61402935#0 61402935#1 61402935#2 61402935#3 61402935#4 61402935#5 1287077169#0 1287077169#1 1287077169#2 -1287074908#1 -1287074908#0 -115400605#5 -115400605#4 -115400605#3 -115400605#2 285298542#0 403658617#0 -403658617#0"/>
    </vehicle>
    <vehicle id="7" depart="14.00">
        <route edges="-1217457468#4 -1217457468#3 -1217457468#2 -1217457468#1 -1217457468#0 -33187489#5 -33187489#4 -33187489#3 -33187489#2 -33187489#1 -56672291 176939620#7 176939620#8 176939620#9 176939620#10 176939620#11 176939620#12 176939620#13 176939620#14 176939620#15 176939620#16 1030765626#0 1030765626#1 1030765626#2 4056027#4 4056027#0 4056027#1 1292748372 4056147#0 4056147#1 4056147#2 4056147#3 4056147#4 4056147#5 1286805288 1286805287#0 1286805287#1 1286805287#2 1286805287#3 1286805287#4 4055798#0 4055798#1 1286805286 993372642#1 40924778 7830057#7 7830057#8 7830057#9 7830057#0 7830057#1 7830057#2 6949060 146286778#0 1166200243 1166200244 13234967#0 13234967#1 -530761997#1 -530761997#0 40924776#0 40924776#1 40924776#2 40924776#3 40924776#4 40924776#5 40924776#6 40924776#7 40924776#8 40924776#9 40924776#10 40924776#11 40924776#12 40924776#13 40924776#14 40924776#15 40924776#16 40924776#17 40924776#18 40924776#19 684169448#0 684169448#1 684169448#2 1287074903#0 1287074903#1 1287074903#2 1293302878#0 61402203#1 61402203#2 61402203#3 61402203#4 61402203#5 61402203#6 61402203#7 8565452#0 8565452#1 8565452#2 8565452#3 8565452#4 8565452#5 8565452#6 8565452#7 8565452#8 8565452#9 826599877#1 826599877#2 826599877#3 826599877#4 826599877#5 684649419 530758946#0 530758946#1 530758946#2 530758946#3 530758946#4 530758946#5 530758946#6 530758946#7 530758946#8 189129806 -37791538#8 -37791538#7 -37791538#5 -37791538#4 -37791538#3 -37791538#2 -37791538#1 -37791538#0 1284152221 28516011#0 28516011#1 28516011#2 28516011#3 28516011#4 28516011#5 28516011#6 28516011#7 28516011#8 28516011#9 28516011#10 28516011#11 -28516011#11"/>
    </vehicle>
    <vehicle id="8" depart="16.00">
        <route edges="7643936 182436401#0 182436401#1 182436401#2 182436401#3 182436401#4 182436401#5 8046827#0 -8046827#0 -182436401#5 -182436401#4 -182436401#3 -182436401#2 -182436401#1 -182436401#0 182436400 4761184#6 4761184#0 4761184#1 4761184#2 182436402 -40421149#8 -40421149#7 -40421149#6 -40421149#5 -40421149#4 -40421149#3 -40421149#2 -40421149#1 -40421149#0 -1047409004#3 -1047409004#2 -1047409004#1 -1047409004#0 -1047409005#10 -1047409005#9 -1047409005#7 -1047409005#6 -1047409005#5 -1047409005#4 -1047409005#3 -1047409005#2 -1047409005#1 -1047409005#0 51362497#0 51362497#1 51362497#2 51362497#3 51362497#4 51362497#5 51362497#6 51362497#7 51362497#8 51362497#9 51362497#10 51362497#11 51362497#12 993372568#0 993372568#1 993372568#2 993372568#3 993372568#4 993372568#5 993372568#6 993372568#7 993372568#8 993372568#9 993372568#10 1017411195#0 1017411195#1 -8573134 4055985 1038206032 1038206033 51362485#0 51362485#1 51362485#2 51362485#3 51362485#5 51362485#6 51362485#7 51362485#8 51362485#9 51362485#10 985579176#0 985579176#1 1099477569#0 1099477569#1 1099477569#2 1099477569#3 1099477569#4 1099477569#5 1099477569#6 1099477569#7 1099477569#8 1099477569#9 1099477569#10 1099477569#11 1099477569#12 1099477569#13 -4055426#3 -4055426#2 -4055426#1 -4055426#0 -4056033 -23185924#6 -23185924#5 -23185924#4 -23185924#3 -23185924#2 -23185924#1 -23185924#0 -1017401725#3 -1017401725#2 -1017401725#1 -1017401725#0 -155786721#1 -155786721#0 -1017401726 -7988473#13 -7988473#12 -7988473#11 -7988473#10 -7988473#9 -7988473#8 -7988473#7 -7988473#6 -7988473#5 -7988473#4 -7988473#3 -7988473#2 -7988473#1 -7988473#0 -1087765769#1 -1087765769#0 4761271#4 4761271#0 -468856264 -28329045 -211493752 -8046410 -8046409 -211493753 -23186028 -193770690 -468856266 -179839346 176013397 292602376#1 292602376#2 292602376#3 292602376#4 292602376#5 292602376#6 292602376#7 179839043"/>
    </vehicle>
    <vehicle id="9" depart="18.00">
        <route edges="292601710#7 292601710#0 292601710#1 292601710#2 22365376 -1015036025#1 -1015036025#0 -60335554#1 -60335554#0 -4055638#7 -4055638#6 -4055638#5 -4055638#4 -4055638#3 -4055638#2 -4055638#1 -4055638#0 -1030693862#2 -1030693862#1 -1030693862#0 -530758947#3 -530758947#2 -530758947#1 -530758947#0 4055798#0 4055798#1 1286805286 993372642#1 40924778 7830057#7 7830057#8 7830057#9 7830057#0 7830057#1 7830057#2 6949060 146286778#0 1166200243 1166200244 13234967#0 13234967#1 -530761997#1 -530761997#0 40924776#0 40924776#1 40924776#2 40924776#3 40924776#4 40924776#5 40924776#6 40924776#7 40924776#8 40924776#9 40924776#10 40924776#11 40924776#12 40924776#13 40924776#14 40924776#15 40924776#16 40924776#17 40924776#18 40924776#19 684169448#0 684169448#1 684169448#2 1287074903#0 1287074903#1 1287074903#2 1293302878#0 61402203#1 61402203#2 61402203#3 61402203#4 61402203#5 61402203#6 61402203#7 148429713#0 148429713#1 148429713#2 148429713#3 148429713#4 148429713#5 148429713#6 148429713#7 148429713#8 148429713#9 148429713#10 148429713#11 148429713#12 148429713#13 148429713#14 148429713#15 148429713#16 1287077168#0 1287077168#1 1287077168#2 1287077168#3 1287077168#4 1287077168#5 1287077168#6 1287077168#7 61402935#0 61402935#1 61402935#2 61402935#3 61402935#4 61402935#5 1287077169#0 1287077169#1 1287077169#2 103875698 1287077167 182432263#0 182432263#1 500151746#0 500151746#1 423903709 4055593#0 4055593#1 706175070 706175069 51365582 -284231424 -284231423#8 -284231423#7 -284231423#6 -284231423#5 -284231423#4 -284231423#3 -284231423#2 -284231423#1 -284231423#0 -39765496#1 -39765496#0 -39765494#1 1452909967#0 1452909967#1 8585626 29377083 29377099#0 29377099#1 -29377099#1"/>
    </vehicle>
    <vehicle id="10" depart="20.00">
        <route edges="159218504#3 159218504#4 32986075 884870721#0 884870721#1 884870721#2 884870721#3 32986076#0 32986076#1 39765497#0 39765497#1 8579229 28801790 8094437 39765494#0 39765494#1 39765496#0 39765496#1 284231423#0 284231423#1 284231423#2 284231423#3 284231423#4 284231423#5 284231423#6 284231423#7 284231423#8 284231424 -51365582 -706175069 -706175070 -4055593#1 -4055593#0 -423903709 4055642 -1017411193#1 1215028278 1215014759#0 1215014759#1 1215014759#2 1215014759#3 1215014759#4 1215014759#5 1215014759#6 24619422#0 24619422#1 -1217118541 -8071689#4 -8071689#3 -8071689#2 -8071689#1 -8071689#0 -8046763 -1017411194 -8046827#3 -8046827#2 -8046827#1 -8046827#0 -182436401#5 -182436401#4 -182436401#3 -182436401#2 -182436401#1 -182436401#0 182436400 4761184#6 4761184#0 4761184#1 4761184#2 182436402 -40421149#8 -40421149#7 -40421149#6 -40421149#5 -40421149#4 -40421149#3 -40421149#2 -40421149#1 -40421149#0 -1047409004#3 -1047409004#2 -1047409004#1 -1047409004#0 -1047409005#10 -1047409005#9 -1047409005#7 -1047409005#6 -1047409005#5 -1047409005#4 -1047409005#3 -1047409005#2 -1047409005#1 -1047409005#0 51362497#0 51362497#1 51362497#2 51362497#3 51362497#4 51362497#5 51362497#6 51362497#7 51362497#8 51362497#9 51362497#10 51362497#11 51362497#12 993372568#0 993372568#1 993372568#2 993372568#3 -993372568#3 -993372568#2"/>
    </vehicle>
    <vehicle id="11" depart="22.00">
        <route edges="-993372568#4 -993372568#3 -993372568#2 -993372568#1 -993372568#0 -51362497#12 -51362497#11 -51362497#10 -51362497#9 -51362497#8 -51362497#7 -51362497#6 -51362497#5 -51362497#4 -51362497#3 -51362497#2 -51362497#1 -51362497#0 40421150#0 40421150#1 40421150#2 40421150#3 40421150#4 40421150#5 40421150#6 -8573135 -38908260 -23438162 -34965825 -34965824 -23438161 -24619161#2 -24619161#1 -24619161#0 -24619160 -4055279 -6949064 -146286778#1 1166200243 1166200244 13234967#0 13234967#1 13234967#2 13234967#3 13234967#4 13234967#5 13234967#6 13234967#7 13234967#8 13234967#9 1211219688#2 1211219688#0"/>
    </vehicle>
    <vehicle id="12" depart="24.00">
        <route edges="-24619422#0 1215014748#0 1215014748#1 1215014748#2 1215014748#3 1215014748#4 1017411193#1 500151745 -182432263#1 -182432263#0 -1287077167 -103875698 -1287077169#2 -1287077169#1 -1287077169#0 -61402935#5 -61402935#4 -61402935#3 -61402935#2 -61402935#1 -61402935#0 -1287077168#7 -1287077168#6 -1287077168#5 -1287077168#4 -1287077168#3 -1287077168#2 -1287077168#1 -1287077168#0 -148429713#16 -148429713#15 -148429713#14 -148429713#13 -148429713#12 -148429713#11 -148429713#10 -148429713#9 -148429713#8 -148429713#7 -148429713#6 -148429713#5 -148429713#4 -148429713#3 -148429713#2 -148429713#1 -148429713#0 -15976031#1 -15976031#0 1416721614 1422089899 -8564626#1 -8564626#0 8564626#0 8564626#1"/>
    </vehicle>
    <vehicle id="13" depart="26.00">
        <route edges="-4055359#1 -4055359#0 4055359#0 4055359#1 4055359#2 4055359#3 4055359#4 -51362497#7 -51362497#6 -51362497#5 -51362497#4 -51362497#3 -51362497#2 -51362497#1 -51362497#0 1047409005#0 1047409005#1 1047409005#2 1047409005#3 1047409005#4 1047409005#5 1047409005#6 1047409005#7 1047409005#9 1047409005#10 1047409004#0 1047409004#1 1047409004#2 1047409004#3 40421149#0 40421149#1 40421149#2 40421149#3 40421149#4 40421149#5 40421149#6 40421149#7 40421149#8 182436405 4761184#4 7643936 182436401#0 182436401#1 182436401#2 182436401#3 182436401#4 182436401#5 8046827#0 8046827#1 8046827#2 8046827#3 1017411194 8046763 8071689#0 8071689#1 8071689#2 8071689#3 8071689#4 1217118541 -24619422#1 -24619422#0 1215014748#0 1215014748#1 1215014748#2 1215014748#3 1215014748#4 1017411193#1 500151745 500151746#0 500151746#1 423903709 4055593#0 4055593#1 706175070 706175069 51365582 -284231424 -284231423#8 -284231423#7 -284231423#6 -284231423#5 -284231423#4 -284231423#3 -284231423#2 -284231423#1 -284231423#0 -39765496#1 -39765496#0 -610772701 -610772700 -1287491357 -882128182#7 -882128182#6 -882128182#5 -882128182#4 -882128182#3 -882128182#2 -882128182#1 -882128182#0 -33791857#2 -33791857#1 -33791857#0 -8046727#1 -8046727#0 -8174970#1 -8174970#0 -1448424351 -8174968 -1448424350 -8174966#3 -8174966#2 -8174966#1 -8174966#0 8174966#0 8174966#1 8174966#2 8174966#3 1448424350 8174968 1448424351"/>
    </vehicle>
    <vehicle id="14" depart="28.00">
        <route edges="148429714#1 530772886#0 530772886#1 530772886#2 1287378452#0 1287378452#1 8294179#0 8294179#1 8294179#2 8294179#3 8294179#4 8294179#5 8294179#6 1287378453#1 1287378453#2 61404031#0 61404031#1 1287378451 37791538#0 37791538#1 37791538#2 37791538#3 37791538#4 37791538#5 37791538#7 37791538#8 -189129806 -530758946#8 -530758946#7 -530758946#6 -530758946#5 -530758946#4 -530758946#3 -530758946#2 -530758946#1 -530758946#0 -684649419 -826599877#5 -826599877#4 -826599877#3 -826599877#2 -826599877#1 -8565452#9 -8565452#8 -8565452#7 -8565452#6 -8565452#5 -8565452#4 -8565452#3 -8565452#2 -8565452#1 -8565452#0 -61402203#7 -61402203#6 -61402203#5 -61402203#4 -61402203#3 -61402203#2 -61402203#1 -1293302878#0 -1287074903#2 -1287074903#1 -1287074903#0 -684169448#2 -684169448#1 -684169448#0 -40924776#19 -40924776#18 -40924776#17 -40924776#16 -40924776#15 -40924776#14 -40924776#13 -40924776#12 -40924776#11 -40924776#10 -40924776#9 -40924776#8 -40924776#7 -40924776#6 -40924776#5 -40924776#4 -40924776#3 -40924776#2 -40924776#1 -40924776#0 530761997#0 530761997#1 -13234967#1 -13234967#0 -1166200244 -1166200243 -146286778#0 33487079 7830057#4 7830057#5 8071268 -993372642#1 -1286805286 -4055798#1 -4055798#0 -1286805287#4 -1286805287#3 -1286805287#2 -1286805287#1 -1286805287#0 -1286805288 -4056147#5 -4056147#4 -4056147#3 -4056147#2 -4056147#1 -4056147#0 7810137#0 7810137#1 7810137#2 7810137#3 7810137#4 7810137#5 7810137#6 7810137#7 7810137#8 7810137#9 7810137#10 7810137#12 7810137#13 7810137#14"/>
    </vehicle>
    <vehicle id="15" depart="30.00">
        <route edges="-9253158#9 -9253158#8 -9253158#7 -9253158#6 -9253158#5 -9253158#4 -9253158#3 -9253158#2 -9253158#1 -9253158#0 35596253#0 35596253#1 -8046827#1 -8046827#0 -182436401#5 -182436401#4 -182436401#3 -182436401#2 -182436401#1 -182436401#0 182436400 4761184#6 4761184#0 4761184#1 4761184#2 182436402 -40421149#8 -40421149#7 -40421149#6 -40421149#5 -40421149#4 -40421149#3 -40421149#2 -40421149#1 -40421149#0 -1047409004#3 -1047409004#2 -1047409004#1 -1047409004#0 -1047409005#10 -1047409005#9 -1047409005#7 -1047409005#6 -1047409005#5 -1047409005#4 -1047409005#3 -1047409005#2 -1047409005#1 -1047409005#0 40421150#0 40421150#1 40421150#2 40421150#3 40421150#4 40421150#5 40421150#6 -8573135 -38908260 -23438162 -34965825 -34965824 -23438161 -24619161#2 -24619161#1 -24619161#0 -24619160 -4055279 -6949064 -146286778#1 -146286778#0 33487079 7830057#4 7830057#5 7830057#6 7830057#7 8059925 -8059926#2 -8059926#1 -8059926#0 -60335559#5 -60335559#4 -60335559#3 -60335559#2 -60335559#1 -60335559#0 -7829741#19 -7829741#18 -7829741#17 -7829741#16"/>
    </vehicle>
    <vehicle id="16" depart="32.00">
        <route edges="1349205370#3 13236376#0 13236376#1 13236376#2 13236376#3 13236376#4 60335559#1 60335559#2 60335559#3 60335559#4 60335559#5 38751085#1 38751085#2 40924776#0 40924776#1 40924776#2 40924776#3 40924776#4 40924776#5 40924776#6 40924776#7 40924776#8 40924776#9 40924776#10 40924776#11 40924776#12 40924776#13 40924776#14 40924776#15 40924776#16 40924776#17 40924776#18 40924776#19 684169448#0 684169448#1 684169448#2 1287074903#0 1287074903#1 1287074903#2 1293302878#0 61402203#1 61402203#2 61402203#3 61402203#4 61402203#5 61402203#6 61402203#7 148429713#0 148429713#1 148429713#2 148429713#3 148429713#4 148429713#5 8590668#0"/>
    </vehicle>
    <vehicle id="17" depart="34.00">
        <route edges="-168172670#2 -168172670#1 -168172670#0 24619129#0 24619129#1 24619129#2 24619129#3 -962366772#2 -962366772#1 -962366772#0 32546223#0 32546223#1 32546223#2 13231416#0 13231416#1 -1286805289#2 -1286805289#1 -1286805289#0 -4055759#26 -4055759#25 -4055759#24 -4055759#23 -4055759#22 -4055759#21 -4055759#20 -4055759#19 -4055759#18 -4055759#17 -4055759#16 -4055759#15 -4055759#14 -4055759#13 -4055759#12 -4055759#11 -4055759#10 -4055759#9 -4055759#8 -4055759#7 -4055759#6 -4055759#5 -4055759#4 -4055759#3 -4055759#2 -4055759#1 -4055759#0 -1135931566#2 -1135931566#1 -1135931566#0 22338258 292601710#6 292601710#7 292601710#0 22338260 -189129825 -22365381#4 -22365381#3 -22365381#2 22313721#0 22313721#1 -22313721#1"/>
    </vehicle>
    <vehicle id="18" depart="36.00">
        <route edges="-15804367#2 -15804367#1 -15804367#0 8294179#3 8294179#4 8294179#5 8294179#6 1287378453#1 1287378453#2 61404031#0 61404031#1 1287378451 37791538#0 37791538#1 37791538#2 37791538#3 37791538#4 37791538#5 37791538#7 37791538#8 -189129806 -530758946#8 -530758946#7 -530758946#6 -530758946#5 -530758946#4 -530758946#3 -530758946#2 -530758946#1 -530758946#0 -684649419 684649419 530758946#0 530758946#1 530758946#2 530758946#3 530758946#4"/>
    </vehicle>
    <vehicle id="19" depart="38.00">
        <route edges="-15804366#0 8294179#4 8294179#5 8294179#6 1287378453#1 1287378453#2 61404031#0 61404031#1 1287378451 37791538#0 37791538#1 37791538#2 37791538#3 37791538#4 37791538#5 37791538#7 37791538#8 -189129806 -530758946#8 -530758946#7 -530758946#6 -530758946#5 -530758946#4 -530758946#3 -530758946#2 -530758946#1 -530758946#0 -684649419 -826599877#5 -826599877#4 -826599877#3 -826599877#2 -826599877#1 -10044877#3 -10044877#2 -10044877#1 -10044877#0 -25485074 -25485076 -10044876 61400134#5 1441976998#0 1441976998#1 1441976998#2 7829741#0 7829741#1 7829741#2 7829741#3 7829741#4 7829741#5 -1441627045"/>
    </vehicle>
    <vehicle id="20" depart="40.00">
        <route edges="1287077169#0 1287077169#1 -1287077169#1 -1287077169#0 -61402935#5 -61402935#4 -61402935#3 -61402935#2 -61402935#1 -61402935#0 -1287077168#7 -1287077168#6 -1287077168#5 -1287077168#4 -1287077168#3 -1287077168#2 -1287077168#1 -1287077168#0 -148429713#16 -148429713#15 -148429713#14 -148429713#13 -148429713#12 -148429713#11 -148429713#10 -148429713#9 -148429713#8 -148429713#7 -148429713#6 -148429713#5 -148429713#4 -148429713#3 -148429713#2 -148429713#1 -148429713#0 -61402203#7 -61402203#6 -61402203#5 -61402203#4 -61402203#3 -61402203#2 -61402203#1 15806576#0 15806576#1 15806576#2 15806576#3 -15806576#3 -15806576#2 -15806576#1 -15806576#0"/>
    </vehicle>
    <vehicle id="21" depart="42.00">
        <route edges="4761271#2 -8066897 -8066898 -7991002 -695959267 -695959268 -7991004 -23185925 -575241094 -575241093 -26162742 -26162741 -56633182 -7991005 7988294#0 7988294#1 176939619 176939620#0 -1323544699#1 -1323544699#0 -962366770 -962366772#2 -962366772#1 -962366772#0 -24790537#4 -13231418#1 -13231418#0 -60335649#9 -60335649#8 -60335649#7"/>
    </vehicle>
    <vehicle id="22" depart="44.00">
        <route edges="51362485#5 -51362485#5 -51362485#3 -51362485#2 -51362485#1 -51362485#0 -1038206033 -1038206032 -4055985 8573134 -1017411195#1 -1017411195#0 -993372568#10 -993372568#9 -993372568#8 -993372568#7 -993372568#6 -993372568#5 -993372568#4 -993372568#3 -993372568#2 -993372568#1 -993372568#0 -51362497#12 -51362497#11 -51362497#10 -51362497#9 -51362497#8 -51362497#7 -51362497#6 -51362497#5 -51362497#4 -51362497#3 -51362497#2 -51362497#1 -51362497#0 40421151#0 1370328141#1 1356689921#0 22467892#0 22467892#1 22467892#2 -22467892#2"/>
    </vehicle>
    <vehicle id="23" depart="46.00">
        <route edges="1287077168#5 1287077168#6 1287077168#7 61402935#0 61402935#1 61402935#2 61402935#3 61402935#4 61402935#5 1287077169#0 1287077169#1 1287077169#2 -1287074908#1 -1287074908#0 -115400605#5 -115400605#4 -115400605#3 -115400605#2 -115400605#1 -115400605#0 -189129820 -15804354 53814718#0 53814718#1 53814718#2 4055672 1293302652"/>
    </vehicle>
    <vehicle id="24" depart="48.00">
        <route edges="15806808#0 15806808#1 15806808#2 15806808#3 -7829742#9 -7829742#8 -7829742#7 -7829742#6 -7829742#5 -7829742#4 -7829742#3 -7829742#2 -7829742#1 -7829738#1 -7829738#0 60335477#3 60335477#4 60335477#5 60335477#6 61400134#0 61400134#1 61400134#2 10044876 25485076 25485074 10044877#0 10044877#1 10044877#2 10044877#3 826599877#1 826599877#2 826599877#3 826599877#4 826599877#5 684649419 530758946#0 530758946#1 530758946#2 530758946#3 530758946#4 530758946#5 530758946#6 15977743#0 15977743#1 15977743#2 15977743#3 -15977743#3 -15977743#2"/>
    </vehicle>
    <vehicle id="25" depart="50.00">
        <route edges="-22467892#0 22467892#0 22467892#1 22467892#2 1361733227#1 22467890#0 22467890#1 -22467890#1 -22467890#0 -1361733227#1"/>
    </vehicle>
    <vehicle id="26" depart="52.00">
        <route edges="24768361#1 61404031#0 61404031#1 1287378451 37791538#0 37791538#1 37791538#2 37791538#3 37791538#4 37791538#5 37791538#7 37791538#8 -189129806 -530758946#8 -530758946#7 -530758946#6 -530758946#5 -530758946#4 -530758946#3 -530758946#2 -530758946#1 -530758946#0 -684649419 -826599877#5 -826599877#4 -826599877#3 -826599877#2 -826599877#1 -8565452#9 -8565452#8 -8565452#7 -8565452#6 -8565452#5 -8565452#4 -8565452#3 -8565452#2 -8565452#1 -8565452#0 -61402203#7 -61402203#6 -61402203#5 -61402203#4 -61402203#3 -61402203#2 -61402203#1 -1293302878#0 -1287074903#2 -1287074903#1 -1287074903#0 -684169448#2 -684169448#1 -684169448#0 -40924776#19 -40924776#18 -40924776#17 -40924776#16 -40924776#15 -40924776#14 -40924776#13 -40924776#12 -40924776#11 -40924776#10 -40924776#9 -40924776#8 -40924776#7 -40924776#6 -40924776#5 -40924776#4 -40924776#3 -40924776#2 -40924776#1 -40924776#0 530761997#0 530761997#1 -13234967#1 -13234967#0 -1166200244 -1166200243 -146286778#0 33487079 7830057#4 7830057#5 8071268 -993372642#1 -1286805286 -4055798#1 -4055798#0 -1286805287#4 -1286805287#3 -1286805287#2 -1286805287#1 -1286805287#0 -1286805288 -4056147#5 -4056147#4 -4056147#3 -4056147#2 -4056147#1 -4056147#0 -1292748372 4056027#2 4056027#3 4056027#4 4055436#0 4055436#1 4055436#2 4055436#3 4055436#4 4055436#5 4055436#6 4055436#7 4055436#8 1020605120 33190837#0 33190837#1 33190837#2 33190837#3 33190837#4 33190837#5 33190837#6 1286805290#0 1286805290#1 1086393580#0 1086393580#1 1286805292 60335557#0 60335557#1 60335557#2 24790495 24711729#0 32995560 -33140618 -60335649#4 -60335649#3 60335649#3"/>
    </vehicle>
    <vehicle id="27" depart="54.00">