<?xml version="1.0" encoding="UTF-8"?>
<!-- generated on 2025-12-17 17:41:46.643453 by randomTrips.py v1_5_0+0000-3a3be608d2
  options: -n olching.net.xml -r olching.trips.xml -e 3600 -p 2
-->
<routes xmlns:xsi="http://www.w3.org/2001/XMLSchema-instance" xsi:noNamespaceSchemaLocation="http://sumo.dlr.de/xsd/routes_file.xsd">
    <trip id="0" depart="0.00" from="-285298538#0" to="51362485#2"/>
    <trip id="1" depart="2.00" from="167219502#0" to="-6238374"/>
    <trip id="2" depart="4.00" from="39765497#1" to="13234967#3"/>
    <trip id="3" depart="6.00" from="60335649#10" to="-4055759#0"/>
    <trip id="4" depart="8.00" from="-129014526#4" to="-31660552#2"/>
    <trip id="5" depart="10.00" from="1047409004#0" to="-149120922#0"/>
    <trip id="6" depart="12.00" from="11280313#5" to="-403658617#0"/>
    <trip id="7" depart="14.00" from="-1217457468#4" to="-28516011#11"/>
    <trip id="8" depart="16.00" from="7643936" to="179839043"/>
    <trip id="9" depart="18.00" from="292601710#7" to="-29377099#1"/>
    <trip id="10" depart="20.00" from="159218504#3" to="-993372568#2"/>
    <trip id="11" depart="22.00" from="-993372568#4" to="1211219688#0"/>
    <trip id="12" depart="24.00" from="-24619422#0" to="8564626#1"/>
    <trip id="13" depart="26.00" from="-4055359#1" to="1448424351"/>
    <trip id="14" depart="28.00" from="148429714#1" to="7810137#14"/>
    <trip id="15" depart="30.00" from="-9253158#9" to="-7829741#16"/>
    <trip id="16" depart="32.00" from="1349205370#3" to="8590668#0"/>
    <trip id="17" depart="34.00" from="-168172670#2" to="-22313721#1"/>
    <trip id="18" depart="36.00" from="-15804367#2" to="530758946#4"/>
    <trip id="19" depart="38.00" from="-15804366#0" to="-1441627045"/>
    <trip id="20" depart="40.00" from="1287077169#0" to="-15806576#0"/>
    <trip id="21" depart="42.00" from="4761271#2" to="-60335649#7"/>
    <trip id="22" depart="44.00" from="51362485#5" to="-22467892#2"/>
    <trip id="23" depart="46.00" from="1287077168#5" to="1293302652"/>
    <trip id="24" depart="48.00" from="15806808#0" to="-15977743#2"/>
    <trip id="25" depart="50.00" from="-22467892#0" to="-1361733227#1"/>
    <trip id="26" depart="52.00" from="24768361#1" to="60335649#3"/>
    <trip id="27" depart="54.00" from="9253156#0" to="176939620#14"/>
    <trip id="28" depart="56.00" from="60335477#6" to="33140624#0"/>
    <trip id="29" depart="58.00" from="4055758#9" to="-33140624#0"/>
    <trip id="30" depart="60.00" from="13225509" to="530758946#3"/>
    <trip id="31" depart="62.00" from="-22467896#0" to="-50804909#0"/>
    <trip id="32" depart="64.00" from="24398471#1" to="-1287077169#2"/>
    <trip id="33" depart="66.00" from="-22467883#1" to="149120922#0"/>
    <trip id="34" depart="68.00" from="-22467895#3" to="-13225512#0"/>
    <trip id="35" depart="70.00" from="-15804343#1" to="-1030693861#2"/>
    <trip id="36" depart="72.00" from="-1099477569#6" to="4761184#5"/>
    <trip id="37" depart="74.00" from="-13236375#3" to="4055426#2"/>
    <trip id="38" depart="76.00" from="-1099477569#13" to="11280313#3"/>
    <trip id="39" depart="78.00" from="181583302" to="182436404#1"/>
    <trip id="40" depart="80.00" from="4548681#2" to="-60335649#10"/>
    <trip id="41" depart="82.00" from="-6236981#2" to="-351364202"/>
    <trip id="42" depart="84.00" from="7991039#3" to="-575241092"/>
    <trip id="43" depart="86.00" from="60336064#1" to="-8116140#0"/>
    <trip id="44" depart="88.00" from="-8590672#1" to="24790631#0"/>
    <trip id="45" depart="90.00" from="31660573#0" to="826599880#2"/>
    <trip id="46" depart="92.00" from="1193619473#2" to="91015609#3"/>
    <trip id="47" depart="94.00" from="-8046837#0" to="22467884#0"/>
    <trip id="48" depart="96.00" from="902047070#1" to="11280313#3"/>
    <trip id="49" depart="98.00" from="4763144#0" to="-51362497#6"/>
    <trip id="50" depart="100.00" from="684169448#1" to="4761313"/>
    <trip id="51" depart="102.00" from="-4055611#0" to="-4055798#0"/>
    <trip id="52" depart="104.00" from="-7988473#2" to="-61404031#0"/>
    <trip id="53" depart="106.00" from="1215014759#3" to="13234967#0"/>
    <trip id="54" depart="108.00" from="292601710#5" to="171825692#0"/>
    <trip id="55" depart="110.00" from="1166200244" to="8116684#1"/>
    <trip id="56" depart="112.00" from="-13225517#0" to="-7810137#4"/>
    <trip id="57" depart="114.00" from="-7828825#4" to="314841242#0"/>
    <trip id="58" depart="116.00" from="1382750988#1" to="1371211132#0"/>
    <trip id="59" depart="118.00" from="-7827029#0" to="-1017966509"/>
    <trip id="60" depart="120.00" from="1193619473#2" to="-61402950"/>
    <trip id="61" depart="122.00" from="-1415942619#6" to="-182734944#20"/>
    <trip id="62" depart="124.00" from="-22455531#0" to="29377323#2"/>
    <trip id="63" depart="126.00" from="-954170156" to="-33140624#0"/>
    <trip id="64" depart="128.00" from="-9253156#2" to="-1382751083#0"/>
    <trip id="65" depart="130.00" from="149120922#1" to="-1290517312"/>
    <trip id="66" depart="132.00" from="24790486#0" to="-53814718#1"/>
    <trip id="67" depart="134.00" from="1211219688#2" to="292604541"/>
    <trip id="68" depart="136.00" from="-189129809#3" to="-24619125"/>
    <trip id="69" depart="138.00" from="-6237007#1" to="-859416740#8"/>
    <trip id="70" depart="140.00" from="115400605#4" to="22467884#2"/>
    <trip id="71" depart="142.00" from="-1429520102" to="40421150#2"/>
    <trip id="72" depart="144.00" from="28658601#3" to="40924776#6"/>
    <trip id="73" depart="146.00" from="159218504#1" to="301227364#0"/>
    <trip id="74" depart="148.00" from="23438161" to="-22467887#0"/>
    <trip id="75" depart="150.00" from="292602376#7" to="1350383762"/>
    <trip id="76" depart="152.00" from="-7829742#11" to="-4055359#0"/>
    <trip id="77" depart="154.00" from="-15804345#0" to="182734944#18"/>
    <trip id="78" depart="156.00" from="152731746#0" to="-60336064#1"/>
    <trip id="79" depart="158.00" from="8565453#0" to="-1099477569#7"/>
    <trip id="80" depart="160.00" from="8059919#2" to="-29377323#2"/>
    <trip id="81" depart="162.00" from="108975116" to="-7829738#5"/>
    <trip id="82" depart="164.00" from="-60335559#0" to="-61402203#7"/>
    <trip id="83" depart="166.00" from="-8294179#6" to="175046161#2"/>
    <trip id="84" depart="168.00" from="-59057616" to="37974120#2"/>
    <trip id="85" depart="170.00" from="-4055611#2" to="-1047409004#0"/>
    <trip id="86" depart="172.00" from="-22467890#7" to="-1287378451"/>
    <trip id="87" depart="174.00" from="8059921#3" to="-32546225#1"/>
    <trip id="88" depart="176.00" from="-182734944#8" to="-61404031#0"/>
    <trip id="89" depart="178.00" from="-33188962#2" to="1293302659"/>
    <trip id="90" depart="180.00" from="-6236981#1" to="-7829742#6"/>
    <trip id="91" depart="182.00" from="-40421150#6" to="152731746#2"/>
    <trip id="92" depart="184.00" from="-7991005" to="-24619422#0"/>
    <trip id="93" depart="186.00" from="182734944#20" to="1047409004#1"/>
    <trip id="94" depart="188.00" from="23185924#1" to="4055611#4"/>
    <trip id="95" depart="190.00" from="1217457468#5" to="-9265762#3"/>
    <trip id="96" depart="192.00" from="-7829741#7" to="22464743#3"/>
    <trip id="97" depart="194.00" from="285298533#0" to="184578455#4"/>
    <trip id="98" depart="196.00" from="8294186#3" to="-1382753887#2"/>
    <trip id="99" depart="198.00" from="-22365342#0" to="-1135931566#1"/>
    <trip id="100" depart="200.00" from="-1371211131#0" to="51362485#9"/>
    <trip id="101" depart="202.00" from="7827029#5" to="-7810139#7"/>
    <trip id="102" depart="204.00" from="1162846423#1" to="13236375#0"/>
    <trip id="103" depart="206.00" from="75001094#1" to="-4056041#0"/>
    <trip id="104" depart="208.00" from="-8059919#4" to="1287077168#0"/>
    <trip id="105" depart="210.00" from="7829738#3" to="11280313#5"/>
    <trip id="106" depart="212.00" from="-75659310" to="-13236375#3"/>
    <trip id="107" depart="214.00" from="8046409" to="-1135931566#0"/>
    <trip id="108" depart="216.00" from="-61402936#3" to="13236376#1"/>
    <trip id="109" depart="218.00" from="-181583317" to="-33190837#3"/>
    <trip id="110" depart="220.00" from="285298541#0" to="171867734"/>
    <trip id="111" depart="222.00" from="-24711729#5" to="60335557#0"/>
    <trip id="112" depart="224.00" from="4055434" to="182436404#1"/>
    <trip id="113" depart="226.00" from="1215133278#2" to="22468081"/>
    <trip id="114" depart="228.00" from="-51362494" to="-403658617#0"/>
    <trip id="115" depart="230.00" from="-30441108#0" to="284231423#5"/>
    <trip id="116" depart="232.00" from="6237007#1" to="-9265762#9"/>
    <trip id="117" depart="234.00" from="8116480#2" to="10044876"/>
    <trip id="118" depart="236.00" from="171801733#3" to="1371211131#2"/>
    <trip id="119" depart="238.00" from="182734944#20" to="-22455531#2"/>
    <trip id="120" depart="240.00" from="8116149#3" to="-4055468#7"/>
    <trip id="121" depart="242.00" from="962366772#0" to="4055426#3"/>
    <trip id="122" depart="244.00" from="-40421149#4" to="-1217457468#2"/>
    <trip id="123" depart="246.00" from="7827678#3" to="-148429713#16"/>
    <trip id="124" depart="248.00" from="4055436#6" to="-8116480#9"/>
    <trip id="125" depart="250.00" from="-1382751083#3" to="1047409005#7"/>
    <trip id="126" depart="252.00" from="-182735330" to="167219502#0"/>
    <trip id="127" depart="254.00" from="-314841242#0" to="-8066899#2"/>
    <trip id="128" depart="256.00" from="4055638#1" to="285298543#1"/>
    <trip id="129" depart="258.00" from="-176049324#1" to="40421151#2"/>
    <trip id="130" depart="260.00" from="29377083" to="8116144#2"/>
    <trip id="131" depart="262.00" from="327462613" to="175395600#1"/>
    <trip id="132" depart="264.00" from="51362497#7" to="-1020605122#0"/>
    <trip id="133" depart="266.00" from="575241103" to="1442250132"/>
    <trip id="134" depart="268.00" from="-684649419" to="28516011#10"/>
    <trip id="135" depart="270.00" from="37974120#1" to="-139904415"/>
    <trip id="136" depart="272.00" from="148429713#1" to="175052125#2"/>
    <trip id="137" depart="274.00" from="28516011#6" to="1215014748#2"/>
    <trip id="138" depart="276.00" from="-22467890#9" to="-15977743#0"/>
    <trip id="139" depart="278.00" from="7810139#4" to="-8318182#5"/>
    <trip id="140" depart="280.00" from="-15977743#2" to="1162846424"/>
    <trip id="141" depart="282.00" from="8059921#3" to="363164847#0"/>
    <trip id="142" depart="284.00" from="13234971#2" to="7829741#0"/>
    <trip id="143" depart="286.00" from="7827677#2" to="176939620#3"/>
    <trip id="144" depart="288.00" from="7828825#4" to="4055611#7"/>
    <trip id="145" depart="290.00" from="-6238374" to="339413265#0"/>
    <trip id="146" depart="292.00" from="8071689#1" to="-189085557#1"/>
    <trip id="147" depart="294.00" from="1047409005#10" to="-33187489#3"/>
    <trip id="148" depart="296.00" from="9253153" to="75001094#3"/>
    <trip id="149" depart="298.00" from="-152731751#4" to="-8294186#6"/>
    <trip id="150" depart="300.00" from="175053521#2" to="-478535035"/>
    <trip id="151" depart="302.00" from="-10058719#1" to="-859416740#3"/>
    <trip id="152" depart="304.00" from="-285298534#0" to="22467893#3"/>
    <trip id="153" depart="306.00" from="-1317709860#1" to="-859416740#5"/>
    <trip id="154" depart="308.00" from="-60335559#2" to="-8066899#4"/>
    <trip id="155" depart="310.00" from="1215014759#1" to="31660552#1"/>
    <trip id="156" depart="312.00" from="1211219688#1" to="8585627#2"/>
    <trip id="157" depart="314.00" from="8590668#1" to="22467883#0"/>
    <trip id="158" depart="316.00" from="-4055593#1" to="327462624"/>
    <trip id="159" depart="318.00" from="-4055759#6" to="24790486#2"/>
    <trip id="160" depart="320.00" from="-4055759#17" to="-4055611#9"/>
    <trip id="161" depart="322.00" from="4055611#4" to="152731759#3"/>
    <trip id="162" depart="324.00" from="-9255753#3" to="-23185924#2"/>
    <trip id="163" depart="326.00" from="-8059921#6" to="-4055758#3"/>
    <trip id="164" depart="328.00" from="-37974120#8" to="-1287074900"/>
    <trip id="165" depart="330.00" from="8059921#6" to="-4056147#1"/>
    <trip id="166" depart="332.00" from="4761271#0" to="1047409004#1"/>
    <trip id="167" depart="334.00" from="-1217457468#3" to="33190837#5"/>
    <trip id="168" depart="336.00" from="-4055759#4" to="-9253158#6"/>
    <trip id="169" depart="338.00" from="-8590677" to="51362497#3"/>
    <trip id="170" depart="340.00" from="-196261987#0" to="-15804355#0"/>
    <trip id="171" depart="342.00" from="4056147#2" to="7810139#3"/>
    <trip id="172" depart="344.00" from="-33140618" to="32546225#1"/>
    <trip id="173" depart="346.00" from="1015036025#0" to="159218504#1"/>
    <trip id="174" depart="348.00" from="4056027#1" to="9253158#4"/>
    <trip id="175" depart="350.00" from="4055426#2" to="83890529#3"/>
    <trip id="176" depart="352.00" from="1284152222" to="13236375#3"/>
    <trip id="177" depart="354.00" from="-15804345#2" to="826599877#2"/>
    <trip id="178" depart="356.00" from="-37974120#3" to="-196261987#0"/>
    <trip id="179" depart="358.00" from="176939620#11" to="-13225512#0"/>
    <trip id="180" depart="360.00" from="363164847#0" to="-182734944#16"/>
    <trip id="181" depart="362.00" from="-58819439" to="-138209917"/>
    <trip id="182" depart="364.00" from="-33140624#1" to="4055759#24"/>
    <trip id="183" depart="366.00" from="-23076137#2" to="-31660552#0"/>
    <trip id="184" depart="368.00" from="-39320901" to="-601383481"/>
    <trip id="185" depart="370.00" from="-7828825#4" to="10044877#2"/>
    <trip id="186" depart="372.00" from="-1193619473#1" to="40924776#5"/>
    <trip id="187" depart="374.00" from="8066897" to="4055758#2"/>
    <trip id="188" depart="376.00" from="-40924776#3" to="60335477#6"/>
    <trip id="189" depart="378.00" from="-22365340" to="22975191#0"/>
    <trip id="190" depart="380.00" from="13236376#0" to="-25485076"/>
    <trip id="191" depart="382.00" from="-1363824162#1" to="153254233#1"/>
    <trip id="192" depart="384.00" from="-148429713#0" to="-53839273#3"/>
    <trip id="193" depart="386.00" from="-8116480#9" to="60335649#4"/>
    <trip id="194" depart="388.00" from="1287074903#1" to="13233342#3"/>
    <trip id="195" depart="390.00" from="219404822" to="4763144#1"/>
    <trip id="196" depart="392.00" from="-33190837#5" to="29377099#0"/>
    <trip id="197" depart="394.00" from="-8059919#2" to="-4055672"/>
    <trip id="198" depart="396.00" from="4055759#11" to="-7828826#4"/>
    <trip id="199" depart="398.00" from="-1287077168#5" to="-1286805290#0"/>
    <trip id="200" depart="400.00" from="23185924#4" to="285298544#0"/>
    <trip id="201" depart="402.00" from="8059921#2" to="4055759#21"/>
    <trip id="202" depart="404.00" from="-8590675" to="61404031#1"/>
    <trip id="203" depart="406.00" from="-61404133" to="6236981#2"/>
    <trip id="204" depart="408.00" from="-7991041" to="8318182#10"/>
    <trip id="205" depart="410.00" from="75001094#0" to="-8059925"/>
    <trip id="206" depart="412.00" from="7810137#3" to="-171825695#5"/>
    <trip id="207" depart="414.00" from="28299361" to="-8059926#0"/>
    <trip id="208" depart="416.00" from="164817998#2" to="-7827677#9"/>
    <trip id="209" depart="418.00" from="-22464750#2" to="-39765497#1"/>
    <trip id="210" depart="420.00" from="-4055638#7" to="175053521#2"/>
    <trip id="211" depart="422.00" from="1291144942" to="-51362494"/>
    <trip id="212" depart="424.00" from="38553043#12" to="-51362485#9"/>
    <trip id="213" depart="426.00" from="695959267" to="9253153"/>
    <trip id="214" depart="428.00" from="-13236375#4" to="6236981#2"/>
    <trip id="215" depart="430.00" from="-1286805294#1" to="61400134#5"/>
    <trip id="216" depart="432.00" from="-468856266" to="-10901246"/>
    <trip id="217" depart="434.00" from="1441627045" to="8590669#4"/>
    <trip id="218" depart="436.00" from="-799395705#3" to="10058723#4"/>
    <trip id="219" depart="438.00" from="197387512#1" to="-1382750988#1"/>
    <trip id="220" depart="440.00" from="-50804909#1" to="-148429713#12"/>
    <trip id="221" depart="442.00" from="-1441976998#0" to="-60335559#0"/>
    <trip id="222" depart="444.00" from="7828826#0" to="22467895#4"/>
    <trip id="223" depart="446.00" from="1017411195#1" to="22455531#2"/>
    <trip id="224" depart="448.00" from="-4763144#0" to="-31660552#4"/>
    <trip id="225" depart="450.00" from="33187489#3" to="182734944#5"/>
    <trip id="226" depart="452.00" from="-13231410#4" to="62103679#3"/>
    <trip id="227" depart="454.00" from="-171867733#0" to="290064974#2"/>
    <trip id="228" depart="456.00" from="-290064974#2" to="57017047#0"/>
    <trip id="229" depart="458.00" from="139904414" to="-49801768#4"/>
    <trip id="230" depart="460.00" from="-1193619473#1" to="-22467896#3"/>
    <trip id="231" depart="462.00" from="-24790486#1" to="-34887968#0"/>
    <trip id="232" depart="464.00" from="-1356689921#5" to="-24619129#1"/>
    <trip id="233" depart="466.00" from="34887967" to="24711729#5"/>
    <trip id="234" depart="468.00" from="13236376#1" to="-33188962#3"/>
    <trip id="235" depart="470.00" from="-61402935#2" to="684169446#4"/>
    <trip id="236" depart="472.00" from="23185924#6" to="-4055638#2"/>
    <trip id="237" depart="474.00" from="189129809#3" to="15804367#0"/>
    <trip id="238" depart="476.00" from="6279175#4" to="-1287077167"/>
    <trip id="239" depart="478.00" from="10044877#1" to="-32546225#1"/>
    <trip id="240" depart="480.00" from="-148429713#9" to="530758947#0"/>
    <trip id="241" depart="482.00" from="9255752#0" to="33190837#4"/>
    <trip id="242" depart="484.00" from="-175046162#1" to="1154101928#7"/>
    <trip id="243" depart="486.00" from="-152731759#3" to="38751085#2"/>
    <trip id="244" depart="488.00" from="53839273#0" to="37791538#3"/>
    <trip id="245" depart="490.00" from="-13231416#1" to="-530772886#2"/>
    <trip id="246" depart="492.00" from="-15804366#2" to="-4548681#2"/>
    <trip id="247" depart="494.00" from="4055759#6" to="-15804345#1"/>
    <trip id="248" depart="496.00" from="24711729#7" to="-182734944#5"/>
    <trip id="249" depart="498.00" from="1350388471#0" to="60335649#4"/>
    <trip id="250" depart="500.00" from="-29377323#2" to="-285298539"/>
    <trip id="251" depart="502.00" from="-6237007#2" to="-7829741#12"/>
    <trip id="252" depart="504.00" from="1020605119#0" to="-859416740#4"/>
    <trip id="253" depart="506.00" from="-993372568#2" to="-1020605121"/>
    <trip id="254" depart="508.00" from="152731751#0" to="-4055759#22"/>
    <trip id="255" depart="510.00" from="-1355365723#0" to="-56633182"/>
    <trip id="256" depart="512.00" from="-530758947#2" to="7810137#7"/>
    <trip id="257" depart="514.00" from="-28516011#0" to="-22975190"/>
    <trip id="258" depart="516.00" from="-37974120#12" to="7829742#0"/>
    <trip id="259" depart="518.00" from="-654798815#4" to="-285298542#4"/>
    <trip id="260" depart="520.00" from="292602376#3" to="-1287074908#1"/>
    <trip id="261" depart="522.00" from="1154101928#7" to="11280313#4"/>
    <trip id="262" depart="524.00" from="314841242#3" to="-120809252#1"/>
    <trip id="263" depart="526.00" from="-1017966513" to="91015609#1"/>
    <trip id="264" depart="528.00" from="-176283822" to="-7810137#4"/>
    <trip id="265" depart="530.00" from="31660861#0" to="-4055638#7"/>
    <trip id="266" depart="532.00" from="-31660917#1" to="13234967#9"/>
    <trip id="267" depart="534.00" from="7827678#2" to="1415943064#0"/>
    <trip id="268" depart="536.00" from="40924776#10" to="-4055758#2"/>
    <trip id="269" depart="538.00" from="-1356689921#5" to="1287077168#6"/>
    <trip id="270" depart="540.00" from="-7810137#4" to="1193619473#0"/>
    <trip id="271" depart="542.00" from="610772700" to="7991004"/>
    <trip id="272" depart="544.00" from="1353985929#1" to="189129809#3"/>
    <trip id="273" depart="546.00" from="-15977743#4" to="22467893#10"/>
    <trip id="274" depart="548.00" from="83890529#5" to="1286805289#0"/>
    <trip id="275" depart="550.00" from="-176939620#14" to="83890529#4"/>
    <trip id="276" depart="552.00" from="-139904414" to="-15806576#1"/>
    <trip id="277" depart="554.00" from="284231423#0" to="133781542#0"/>
    <trip id="278" depart="556.00" from="108975116" to="8590676#1"/>
    <trip id="279" depart="558.00" from="-51362495#2" to="4055759#13"/>
    <trip id="280" depart="560.00" from="-152731749#3" to="27868196#2"/>
    <trip id="281" depart="562.00" from="-63973426#3" to="-4055611#13"/>
    <trip id="282" depart="564.00" from="1030693862#2" to="-182734944#2"/>
    <trip id="283" depart="566.00" from="-15804343#1" to="-11280313#1"/>
    <trip id="284" depart="568.00" from="28658601#8" to="-33791857#0"/>
    <trip id="285" depart="570.00" from="-120809252#1" to="-182734944#19"/>
    <trip id="286" depart="572.00" from="-1099477569#3" to="4055759#14"/>
    <trip id="287" depart="574.00" from="100#4" to="-519372144"/>
    <trip id="288" depart="576.00" from="100#2" to="32995566#1"/>
    <trip id="289" depart="578.00" from="22468081" to="-22467884#1"/>
    <trip id="290" depart="580.00" from="1017411195#0" to="-8059921#2"/>
    <trip id="291" depart="582.00" from="-175253863" to="33187489#2"/>
    <trip id="292" depart="584.00" from="1442250132" to="7810139#2"/>
    <trip id="293" depart="586.00" from="-115400605#1" to="-40421150#0"/>
    <trip id="294" depart="588.00" from="-7810139#1" to="-189085550"/>
    <trip id="295" depart="590.00" from="-575241093" to="-24790499#0"/>
    <trip id="296" depart="592.00" from="-39765494#1" to="7829741#16"/>
    <trip id="297" depart="594.00" from="-184578455#3" to="7991039#5"/>
    <trip id="298" depart="596.00" from="103875698" to="-4055426#3"/>
    <trip id="299" depart="598.00" from="1215014759#4" to="-22464748#1"/>
    <trip id="300" depart="600.00" from="15804340#0" to="4055638#4"/>
    <trip id="301" depart="602.00" from="-182734944#5" to="-1217457468#5"/>
    <trip id="302" depart="604.00" from="-284284049#2" to="-4055359#1"/>
    <trip id="303" depart="606.00" from="-28516011#7" to="-1287077168#1"/>
    <trip id="304" depart="608.00" from="4056027#2" to="8066899#2"/>
    <trip id="305" depart="610.00" from="-167219502#2" to="-38751087#0"/>
    <trip id="306" depart="612.00" from="-32546225#2" to="-15804348"/>
    <trip id="307" depart="614.00" from="-7829741#11" to="8590668#0"/>
    <trip id="308" depart="616.00" from="-985579176#0" to="468856264"/>
    <trip id="309" depart="618.00" from="100#2" to="-7828825#4"/>
    <trip id="310" depart="620.00" from="-10058723#1" to="3345072"/>
    <trip id="311" depart="622.00" from="148429713#11" to="32995564"/>
    <trip id="312" depart="624.00" from="11280313#3" to="8046410"/>
    <trip id="313" depart="626.00" from="-24619272" to="1350388471#1"/>
    <trip id="314" depart="628.00" from="10058725#2" to="-24790499#3"/>
    <trip id="315" depart="630.00" from="-40924776#15" to="23076137#1"/>
    <trip id="316" depart="632.00" from="15804345#0" to="4055759#13"/>
    <trip id="317" depart="634.00" from="302253179#0" to="-10058723#1"/>
    <trip id="318" depart="636.00" from="38553043#9" to="-32045948"/>
    <trip id="319" depart="638.00" from="4055359#1" to="-1135931566#2"/>
    <trip id="320" depart="640.00" from="9265762#7" to="39320907"/>
    <trip id="321" depart="642.00" from="1017966513" to="9265762#2"/>
    <trip id="322" depart="644.00" from="-60335477#0" to="10058725#2"/>
    <trip id="323" depart="646.00" from="129014526#4" to="7827678#0"/>
    <trip id="324" depart="648.00" from="37974120#7" to="-10058719#0"/>
    <trip id="325" depart="650.00" from="61402203#4" to="7991039#4"/>
    <trip id="326" depart="652.00" from="285298543#1" to="-22467884#1"/>
    <trip id="327" depart="654.00" from="-4055611#8" to="9253158#9"/>
    <trip id="328" depart="656.00" from="1349205370#3" to="4055593#1"/>
    <trip id="329" depart="658.00" from="684169446#3" to="40421151#0"/>
    <trip id="330" depart="660.00" from="1286805288" to="-22365342#0"/>
    <trip id="331" depart="662.00" from="22975191#0" to="292602376#5"/>
    <trip id="332" depart="664.00" from="24619422#1" to="13236377#1"/>
    <trip id="333" depart="666.00" from="175019926" to="15976031#0"/>
    <trip id="334" depart="668.00" from="15806809#0" to="-24408425"/>
    <trip id="335" depart="670.00" from="684169448#0" to="8590676#3"/>
    <trip id="336" depart="672.00" from="13225509" to="-138209917"/>
    <trip id="337" depart="674.00" from="7829742#8" to="60335554#1"/>
    <trip id="338" depart="676.00" from="175872368#4" to="31660861#2"/>
    <trip id="339" depart="678.00" from="-4056147#4" to="60335554#1"/>
    <trip id="340" depart="680.00" from="-859416740#7" to="-1291144895#2"/>
    <trip id="341" depart="682.00" from="-8046837#1" to="-8565453#6"/>
    <trip id="342" depart="684.00" from="272186265#0" to="488100592#1"/>
    <trip id="343" depart="686.00" from="-184539789" to="7810137#9"/>
    <trip id="344" depart="688.00" from="-22467889#5" to="-92351822#0"/>
    <trip id="345" depart="690.00" from="4055759#1" to="-7810137#1"/>
    <trip id="346" depart="692.00" from="-684169448#2" to="-7988473#7"/>
    <trip id="347" depart="694.00" from="7829741#1" to="-530758946#1"/>
    <trip id="348" depart="696.00" from="1154101928#2" to="60336064#2"/>
    <trip id="349" depart="698.00" from="22365342#0" to="13236375#5"/>
    <trip id="350" depart="700.00" from="-1415942619#7" to="-1154101928#3"/>
    <trip id="351" depart="702.00" from="706175070" to="-8116480#8"/>
    <trip id="352" depart="704.00" from="-10378520" to="7988473#4"/>
    <trip id="353" depart="706.00" from="4056027#1" to="-1286805294#0"/>
    <trip id="354" depart="708.00" from="-4055611#11" to="-8585378"/>
    <trip id="355" depart="710.00" from="-40924776#9" to="1087765769#0"/>
    <trip id="356" depart="712.00" from="37974120#7" to="-24619125"/>
    <trip id="357" depart="714.00" from="884870721#2" to="-1382753887#1"/>
    <trip id="358" depart="716.00" from="33188124" to="292602376#8"/>
    <trip id="359" depart="718.00" from="8318182#5" to="40924776#5"/>
    <trip id="360" depart="720.00" from="13234967#1" to="15977741#2"/>
    <trip id="361" depart="722.00" from="182734945" to="-22464743#2"/>
    <trip id="362" depart="724.00" from="-24711729#3" to="22365342#0"/>
    <trip id="363" depart="726.00" from="8071689#3" to="22467895#6"/>
    <trip id="364" depart="728.00" from="28516011#4" to="-1371211132#2"/>
    <trip id="365" depart="730.00" from="51362497#3" to="-15804367#0"/>
    <trip id="366" depart="732.00" from="-176939620#7" to="882128182#6"/>
    <trip id="367" depart="734.00" from="-284231423#8" to="7827678#2"/>
    <trip id="368" depart="736.00" from="1147824532" to="31660573#3"/>
    <trip id="369" depart="738.00" from="7988473#12" to="-13236376#4"/>
    <trip id="370" depart="740.00" from="-38553043#11" to="1154101928#5"/>
    <trip id="371" depart="742.00" from="11280313#9" to="22467890#1"/>
    <trip id="372" depart="744.00" from="8059919#2" to="4055681#0"/>
    <trip id="373" depart="746.00" from="22455527" to="-15806576#2"/>
    <trip id="374" depart="748.00" from="8059921#2" to="30441107"/>
    <trip id="375" depart="750.00" from="-13231410#0" to="-1166200244"/>
    <trip id="376" depart="752.00" from="1452909967#1" to="4763144#1"/>
    <trip id="377" depart="754.00" from="62103678#7" to="-11280313#1"/>
    <trip id="378" depart="756.00" from="-22467890#5" to="530758946#4"/>
    <trip id="379" depart="758.00" from="8590667#0" to="15805336#0"/>
    <trip id="380" depart="760.00" from="-7810137#4" to="-4055759#18"/>
    <trip id="381" depart="762.00" from="32546225#6" to="-1355365723#0"/>
    <trip id="382" depart="764.00" from="9253158#7" to="60335559#4"/>
    <trip id="383" depart="766.00" from="-40924776#9" to="8590669#1"/>
    <trip id="384" depart="768.00" from="6237007#0" to="23185924#1"/>
    <trip id="385" depart="770.00" from="-10058723#3" to="8294186#0"/>
    <trip id="386" depart="772.00" from="62103679#2" to="-30765110#1"/>
    <trip id="387" depart="774.00" from="4055611#11" to="-1214314638"/>
    <trip id="388" depart="776.00" from="179839787" to="-1086393580#0"/>
    <trip id="389" depart="778.00" from="15804364#1" to="-22467896#1"/>
    <trip id="390" depart="780.00" from="171867733#1" to="1194742750"/>
    <trip id="391" depart="782.00" from="-1154101928#0" to="148429713#8"/>
    <trip id="392" depart="784.00" from="-7991005" to="181310526#2"/>
    <trip id="393" depart="786.00" from="7810137#3" to="1287077168#2"/>
    <trip id="394" depart="788.00" from="8116149#5" to="164817998#2"/>
    <trip id="395" depart="790.00" from="38908017#3" to="-4055638#1"/>
    <trip id="396" depart="792.00" from="15977743#3" to="7827678#6"/>
    <trip id="397" depart="794.00" from="-22467883#1" to="-4055611#17"/>
    <trip id="398" depart="796.00" from="4055611#6" to="-993372568#9"/>
    <trip id="399" depart="798.00" from="133781543#0" to="327462632"/>
    <trip id="400" depart="800.00" from="8318182#7" to="-1382753887#3"/>
    <trip id="401" depart="802.00" from="13225514#1" to="-1287318569"/>
    <trip id="402" depart="804.00" from="100#0" to="24711747"/>
    <trip id="403" depart="806.00" from="-7827677#5" to="-10058725#1"/>
    <trip id="404" depart="808.00" from="33487079" to="7810136#3"/>
    <trip id="405" depart="810.00" from="-9265753#3" to="-22365381#1"/>
    <trip id="406" depart="812.00" from="1287077169#1" to="1371211132#4"/>
    <trip id="407" depart="814.00" from="-32986076#0" to="-129014526#4"/>
    <trip id="408" depart="816.00" from="-38908017#1" to="22455523#3"/>
    <trip id="409" depart="818.00" from="7827677#0" to="-33140621"/>
    <trip id="410" depart="820.00" from="-8585753#1" to="-7829741#5"/>
    <trip id="411" depart="822.00" from="1350383762" to="7828826#3"/>
    <trip id="412" depart="824.00" from="-826599877#4" to="1442250132"/>
    <trip id="413" depart="826.00" from="-13236376#2" to="8590667#0"/>
    <trip id="414" depart="828.00" from="22365381#1" to="-22467890#15"/>