<?xml version="1.0" encoding="UTF-8"?>

<!-- generated on 12/16/25 15:11:04 by Eclipse SUMO netconvert Version 1.5.0
<configuration xmlns:xsi="http://www.w3.org/2001/XMLSchema-instance" xsi:noNamespaceSchemaLocation="http://sumo.dlr.de/xsd/netconvertConfiguration.xsd">

    <input>
        <osm-files value="munich_center_raw.osm"/>
    </input>

    <output>
        <output-file value="munich_center.net.xml"/>
    </output>

    <projection>
        <proj.utm value="true"/>
    </projection>

    <tls_building>
        <tls.discard-simple value="true"/>
    </tls_building>

    <edge_removal>
        <keep-edges.by-vclass value="passenger"/>
        <remove-edges.isolated value="true"/>
    </edge_removal>

    <junctions>
        <no-turnarounds.tls value="true"/>
        <junctions.join value="true"/>
    </junctions>

    <report>
        <aggregate-warnings value="5"/>
    </report>

</configuration>
-->

<net version="1.3" junctionCornerDetail="5" limitTurnSpeed="5.50" xmlns:xsi="http://www.w3.org/2001/XMLSchema-instance" xsi:noNamespaceSchemaLocation="http://sumo.dlr.de/xsd/net_file.xsd">

    <location netOffset="-690941.49,-5334185.83" convBoundary="0.00,0.00,1177.63,1052.96" origBoundary="11.566634,48.132166,11.582351,48.141492" projParameter="+proj=utm +zone=32 +ellps=WGS84 +datum=WGS84 +units=m +no_defs"/>

    <type id="highway.bridleway" priority="1" numLanes="1" speed="2.78" allow="pedestrian" oneway="1" width="2.00"/>
    <type id="highway.bus_guideway" priority="1" numLanes="1" speed="27.78" allow="bus" oneway="1"/>
    <type id="highway.cycleway" priority="1" numLanes="1" speed="8.33" allow="bicycle" oneway="0" width="1.00"/>
    <type id="highway.footway" priority="1" numLanes="1" speed="2.78" allow="pedestrian" oneway="1" width="2.00"/>
    <type id="highway.ford" priority="1" numLanes="1" speed="2.78" allow="army" oneway="0"/>
    <type id="highway.living_street" priority="2" numLanes="1" speed="2.78" disallow="tram rail_urban rail rail_electric rail_fast ship" oneway="0"/>
    <type id="highway.motorway" priority="14" numLanes="2" speed="39.44" allow="private emergency authority army vip passenger hov taxi bus coach delivery truck trailer motorcycle evehicle custom1 custom2" oneway="1"/>
    <type id="highway.motorway_link" priority="9" numLanes="1" speed="22.22" allow="private emergency authority army vip passenger hov taxi bus coach delivery truck trailer motorcycle evehicle custom1 custom2" oneway="1"/>
    <type id="highway.path" priority="1" numLanes="1" speed="2.78" allow="pedestrian bicycle" oneway="1" width="2.00"/>
    <type id="highway.pedestrian" priority="1" numLanes="1" speed="2.78" allow="pedestrian" oneway="1" width="2.00"/>
    <type id="highway.primary" priority="12" numLanes="2" speed="27.78" disallow="tram rail_urban rail rail_electric rail_fast ship" oneway="0"/>
    <type id="highway.primary_link" priority="7" numLanes="1" speed="22.22" disallow="tram rail_urban rail rail_electric rail_fast ship" oneway="0"/>
    <type id="highway.raceway" priority="15" numLanes="2" speed="83.33" allow="vip" oneway="0"/>
    <type id="highway.residential" priority="3" numLanes="1" speed="13.89" disallow="tram rail_urban rail rail_electric rail_fast ship" oneway="0"/>
    <type id="highway.secondary" priority="11" numLanes="1" speed="27.78" disallow="tram rail_urban rail rail_electric rail_fast ship" oneway="0"/>
    <type id="highway.secondary_link" priority="6" numLanes="1" speed="22.22" disallow="tram rail_urban rail rail_electric rail_fast ship" oneway="0"/>
    <type id="highway.service" priority="1" numLanes="1" speed="5.56" allow="pedestrian delivery bicycle" oneway="0"/>
    <type id="highway.stairs" priority="1" numLanes="1" speed="1.39" allow="pedestrian" oneway="1" width="2.00"/>
    <type id="highway.step" priority="1" numLanes="1" speed="1.39" allow="pedestrian" oneway="1" width="2.00"/>
    <type id="highway.steps" priority="1" numLanes="1" speed="1.39" allow="pedestrian" oneway="1" width="2.00"/>
    <type id="highway.tertiary" priority="10" numLanes="1" speed="22.22" disallow="tram rail_urban rail rail_electric rail_fast ship" oneway="0"/>
    <type id="highway.tertiary_link" priority="5" numLanes="1" speed="22.22" disallow="tram rail_urban rail rail_electric rail_fast ship" oneway="0"/>
    <type id="highway.track" priority="1" numLanes="1" speed="5.56" disallow="tram rail_urban rail rail_electric rail_fast ship" oneway="0"/>
    <type id="highway.trunk" priority="13" numLanes="2" speed="27.78" disallow="pedestrian bicycle tram rail_urban rail rail_electric rail_fast ship" oneway="0"/>
    <type id="highway.trunk_link" priority="8" numLanes="1" speed="22.22" disallow="pedestrian bicycle tram rail_urban rail rail_electric rail_fast ship" oneway="0"/>
    <type id="highway.unclassified" priority="4" numLanes="1" speed="13.89" disallow="tram rail_urban rail rail_electric rail_fast ship" oneway="0"/>
    <type id="highway.unsurfaced" priority="1" numLanes="1" speed="8.33" disallow="tram rail_urban rail rail_electric rail_fast ship" oneway="0"/>
    <type id="railway.highspeed" priority="21" numLanes="1" speed="69.44" allow="rail_fast" oneway="1"/>
    <type id="railway.light_rail" priority="19" numLanes="1" speed="27.78" allow="rail_urban" oneway="1"/>
    <type id="railway.preserved" priority="16" numLanes="1" speed="27.78" allow="rail" oneway="1"/>
    <type id="railway.rail" priority="20" numLanes="1" speed="44.44" allow="rail" oneway="1"/>
    <type id="railway.subway" priority="18" numLanes="1" speed="27.78" allow="rail_urban" oneway="1"/>
    <type id="railway.tram" priority="17" numLanes="1" speed="13.89" allow="tram" oneway="1"/>

    <edge id=":10092442858_0" function="internal">
        <lane id=":10092442858_0_0" index="0" disallow="tram rail_urban rail rail_electric rail_fast ship" speed="8.33" length="0.10" shape="736.29,238.42 736.29,238.42"/>
    </edge>
    <edge id=":10092442858_1" function="internal">
        <lane id=":10092442858_1_0" index="0" disallow="tram rail_urban rail rail_electric rail_fast ship" speed="8.33" length="0.10" shape="739.48,238.21 739.48,238.21"/>
    </edge>
    <edge id=":10092453346_0" function="internal">
        <lane id=":10092453346_0_0" index="0" disallow="tram rail_urban rail rail_electric rail_fast ship" speed="3.65" length="4.67" shape="727.28,76.87 728.02,75.63 728.80,75.20 729.62,75.56 730.47,76.72"/>
    </edge>
    <edge id=":10092463441_0" function="internal">
        <lane id=":10092463441_0_0" index="0" disallow="tram rail_urban rail rail_electric rail_fast ship" speed="8.33" length="0.10" shape="814.22,540.52 814.22,540.52"/>
    </edge>
    <edge id=":10092463441_1" function="internal">
        <lane id=":10092463441_1_0" index="0" disallow="tram rail_urban rail rail_electric rail_fast ship" speed="8.33" length="0.10" shape="816.60,538.38 816.60,538.38"/>
    </edge>
    <edge id=":10568232908_0" function="internal">
        <lane id=":10568232908_0_0" index="0" disallow="tram rail_urban rail rail_electric rail_fast ship" speed="13.89" length="0.30" shape="555.40,136.78 555.18,136.98"/>
        <lane id=":10568232908_0_1" index="1" disallow="tram rail_urban rail rail_electric rail_fast ship" speed="13.89" length="0.30" shape="553.17,134.48 552.96,134.68"/>
    </edge>
    <edge id=":11047655793_0" function="internal">
        <lane id=":11047655793_0_0" index="0" disallow="tram rail_urban rail rail_electric rail_fast ship" speed="8.33" length="0.95" shape="191.91,978.08 192.73,977.58"/>
        <lane id=":11047655793_0_1" index="1" disallow="tram rail_urban rail rail_electric rail_fast ship" speed="8.33" length="0.95" shape="190.17,975.40 190.97,974.91"/>
    </edge>
    <edge id=":11115677578_0" function="internal">
        <lane id=":11115677578_0_0" index="0" disallow="tram rail_urban rail rail_electric rail_fast ship" speed="8.33" length="0.10" shape="938.32,138.64 938.32,138.64"/>
    </edge>
    <edge id=":11215768213_0" function="internal">
        <lane id=":11215768213_0_0" index="0" disallow="tram rail_urban rail rail_electric rail_fast ship" speed="13.89" length="0.10" shape="874.94,187.05 874.94,187.05"/>
    </edge>
    <edge id=":11215768213_1" function="internal">
        <lane id=":11215768213_1_0" index="0" disallow="tram rail_urban rail rail_electric rail_fast ship" speed="13.89" length="0.10" shape="876.12,184.07 876.12,184.07"/>
    </edge>
    <edge id=":1121737043_0" function="internal">
        <lane id=":1121737043_0_0" index="0" disallow="tram rail_urban rail rail_electric rail_fast ship" speed="8.33" length="0.30" shape="803.06,528.08 802.86,527.85"/>
    </edge>
    <edge id=":1121737043_1" function="internal">
        <lane id=":1121737043_1_0" index="0" disallow="tram rail_urban rail rail_electric rail_fast ship" speed="8.33" length="0.19" shape="805.32,525.80 805.44,525.94"/>
    </edge>
    <edge id=":11241805177_0" function="internal">
        <lane id=":11241805177_0_0" index="0" disallow="tram rail_urban rail rail_electric rail_fast ship" speed="8.33" length="0.10" shape="843.31,83.15 843.31,83.15"/>
    </edge>
    <edge id=":11241805178_0" function="internal">
        <lane id=":11241805178_0_0" index="0" disallow="tram rail_urban rail rail_electric rail_fast ship" speed="8.33" length="0.30" shape="828.07,79.45 828.34,79.32"/>
    </edge>
    <edge id=":11297900234_0" function="internal">
        <lane id=":11297900234_0_0" index="0" disallow="tram rail_urban rail rail_electric rail_fast ship" speed="13.89" length="0.25" shape="230.74,188.31 230.50,188.21"/>
    </edge>
    <edge id=":11297900234_1" function="internal">
        <lane id=":11297900234_1_0" index="0" disallow="tram rail_urban rail rail_electric rail_fast ship" speed="13.89" length="0.31" shape="231.68,185.24 231.97,185.36"/>
    </edge>
    <edge id=":11297900235_0" function="internal">
        <lane id=":11297900235_0_0" index="0" disallow="tram rail_urban rail rail_electric rail_fast ship" speed="13.89" length="0.10" shape="253.28,199.96 253.36,200.01"/>
    </edge>
    <edge id=":11297900235_1" function="internal">
        <lane id=":11297900235_1_0" index="0" disallow="tram rail_urban rail rail_electric rail_fast ship" speed="13.89" length="0.10" shape="254.92,197.21 255.00,197.26"/>
    </edge>
    <edge id=":11297900236_0" function="internal">
        <lane id=":11297900236_0_0" index="0" disallow="tram rail_urban rail rail_electric rail_fast ship" speed="13.89" length="0.10" shape="214.69,182.52 214.69,182.52"/>
    </edge>
    <edge id=":11297900236_1" function="internal">
        <lane id=":11297900236_1_0" index="0" disallow="tram rail_urban rail rail_electric rail_fast ship" speed="13.89" length="0.10" shape="215.61,179.46 215.61,179.46"/>
    </edge>
    <edge id=":1159815159_0" function="internal">
        <lane id=":1159815159_0_0" index="0" disallow="tram rail_urban rail rail_electric rail_fast ship" speed="13.89" length="0.30" shape="336.32,291.25 336.12,291.03"/>
    </edge>
    <edge id=":1159815159_1" function="internal">
        <lane id=":1159815159_1_0" index="0" disallow="tram rail_urban rail rail_electric rail_fast ship" speed="13.89" length="0.30" shape="338.51,288.90 338.71,289.12"/>
    </edge>
    <edge id=":1159815183_0" function="internal">
        <lane id=":1159815183_0_0" index="0" disallow="tram rail_urban rail rail_electric rail_fast ship" speed="13.89" length="0.33" shape="332.31,286.75 332.09,286.49"/>
    </edge>
    <edge id=":1159815183_1" function="internal">
        <lane id=":1159815183_1_0" index="0" disallow="tram rail_urban rail rail_electric rail_fast ship" speed="13.89" length="0.11" shape="334.62,284.53 334.69,284.62"/>
    </edge>
    <edge id=":11753140116_0" function="internal">
        <lane id=":11753140116_0_0" index="0" disallow="tram rail_urban rail rail_electric rail_fast ship" speed="3.65" length="4.67" shape="778.57,725.13 779.09,723.79 779.79,723.23 780.66,723.45 781.69,724.45"/>
    </edge>
    <edge id=":11753908657_0" function="internal">
        <lane id=":11753908657_0_0" index="0" disallow="tram rail_urban rail rail_electric rail_fast ship" speed="8.33" length="0.10" shape="189.27,960.52 189.27,960.52"/>
    </edge>
    <edge id=":1193978000_0" function="internal">
        <lane id=":1193978000_0_0" index="0" disallow="tram rail_urban rail rail_electric rail_fast ship" speed="8.33" length="0.30" shape="1044.32,308.46 1044.01,308.44"/>
        <lane id=":1193978000_0_1" index="1" disallow="tram rail_urban rail rail_electric rail_fast ship" speed="8.33" length="0.30" shape="1044.50,305.27 1044.22,305.25"/>
    </edge>
    <edge id=":1204406364_0" function="internal">
        <lane id=":1204406364_0_0" index="0" disallow="tram rail_urban rail rail_electric rail_fast ship" speed="6.58" length="8.46" shape="457.42,869.96 458.72,871.96 460.30,873.16 462.16,873.55 464.32,873.15"/>
    </edge>
    <edge id=":1204406364_1" function="internal">
        <lane id=":1204406364_1_0" index="0" disallow="tram rail_urban rail rail_electric rail_fast ship" speed="8.33" length="10.13" shape="454.75,876.48 464.32,873.15"/>
    </edge>
    <edge id=":12110571303_0" function="internal">
        <lane id=":12110571303_0_0" index="0" disallow="tram rail_urban rail rail_electric rail_fast ship" speed="8.33" length="0.30" shape="328.91,582.44 329.21,582.40"/>
    </edge>
    <edge id=":1230459896_0" function="internal">
        <lane id=":1230459896_0_0" index="0" disallow="tram rail_urban rail rail_electric rail_fast ship" speed="13.89" length="2.50" shape="191.52,982.55 189.36,981.16"/>
        <lane id=":1230459896_0_1" index="1" disallow="tram rail_urban rail rail_electric rail_fast ship" speed="13.89" length="2.50" shape="189.80,985.25 187.76,983.93"/>
    </edge>
    <edge id=":1230460308_0" function="internal">
        <lane id=":1230460308_0_0" index="0" disallow="tram rail_urban rail rail_electric rail_fast ship" speed="8.33" length="0.30" shape="193.43,977.10 193.17,977.27"/>
        <lane id=":1230460308_0_1" index="1" disallow="tram rail_urban rail rail_electric rail_fast ship" speed="8.33" length="0.30" shape="191.67,974.42 191.43,974.58"/>
    </edge>
    <edge id=":1239166840_0" function="internal">
        <lane id=":1239166840_0_0" index="0" disallow="tram rail_urban rail rail_electric rail_fast ship" speed="11.11" length="0.28" shape="511.90,864.11 512.12,864.29"/>
    </edge>
    <edge id=":1306431943_0" function="internal">
        <lane id=":1306431943_0_0" index="0" disallow="tram rail_urban rail rail_electric rail_fast ship" speed="3.65" length="4.67" shape="431.10,1023.92 429.70,1023.57 429.06,1022.94 429.17,1022.06 430.04,1020.90"/>
    </edge>
    <edge id=":1313365829_0" function="internal">
        <lane id=":1313365829_0_0" index="0" disallow="tram rail_urban rail rail_electric rail_fast ship" speed="13.89" length="14.53" shape="519.89,413.11 508.29,404.37"/>
    </edge>
    <edge id=":1313365829_1" function="internal">
        <lane id=":1313365829_1_0" index="0" disallow="tram rail_urban rail rail_electric rail_fast ship" speed="7.84" length="6.05" shape="519.89,413.11 517.02,410.27 516.29,408.40"/>
    </edge>
    <edge id=":1313365829_2" function="internal">
        <lane id=":1313365829_2_0" index="0" disallow="tram rail_urban rail rail_electric rail_fast ship" speed="3.65" length="2.34" shape="519.89,413.11 519.40,411.76 519.55,410.88"/>
    </edge>
    <edge id=":1313365829_12" function="internal">
        <lane id=":1313365829_12_0" index="0" disallow="tram rail_urban rail rail_electric rail_fast ship" speed="7.84" length="8.50" shape="516.29,408.40 515.84,407.25 516.37,404.06 518.60,400.69"/>
    </edge>
    <edge id=":1313365829_13" function="internal">
        <lane id=":1313365829_13_0" index="0" disallow="tram rail_urban rail rail_electric rail_fast ship" speed="3.65" length="2.34" shape="519.55,410.88 520.35,410.47 521.79,410.54"/>
    </edge>
    <edge id=":1313365829_3" function="internal">
        <lane id=":1313365829_3_0" index="0" disallow="tram rail_urban rail rail_electric rail_fast ship" speed="6.31" length="9.04" shape="520.99,402.83 519.60,404.91 519.28,406.90 520.01,408.77 521.79,410.54"/>
    </edge>
    <edge id=":1313365829_4" function="internal">
        <lane id=":1313365829_4_0" index="0" disallow="tram rail_urban rail rail_electric rail_fast ship" speed="8.26" length="14.37" shape="520.99,402.83 517.95,405.44 514.81,406.57 511.59,406.22 508.29,404.37"/>
    </edge>
    <edge id=":1313365829_5" function="internal">
        <lane id=":1313365829_5_0" index="0" disallow="tram rail_urban rail rail_electric rail_fast ship" speed="3.65" length="4.67" shape="520.99,402.83 519.59,403.19 518.73,402.95 518.40,402.12 518.60,400.69"/>
    </edge>
    <edge id=":1313365829_6" function="internal">
        <lane id=":1313365829_6_0" index="0" disallow="tram rail_urban rail rail_electric rail_fast ship" speed="6.82" length="9.47" shape="510.24,401.84 512.39,403.02 514.50,403.23 516.57,402.45 518.60,400.69"/>
    </edge>
    <edge id=":1313365829_7" function="internal">
        <lane id=":1313365829_7_0" index="0" disallow="tram rail_urban rail rail_electric rail_fast ship" speed="13.89" length="14.46" shape="510.24,401.84 521.79,410.54"/>
    </edge>
    <edge id=":1313365829_8" function="internal">
        <lane id=":1313365829_8_0" index="0" disallow="tram rail_urban rail rail_electric rail_fast ship" speed="3.65" length="2.34" shape="510.24,401.84 510.70,403.21 510.53,404.08"/>
    </edge>
    <edge id=":1313365829_14" function="internal">
        <lane id=":1313365829_14_0" index="0" disallow="tram rail_urban rail rail_electric rail_fast ship" speed="3.65" length="2.34" shape="510.53,404.08 509.72,404.47 508.29,404.37"/>
    </edge>
    <edge id=":1313365829_9" function="internal">
        <lane id=":1313365829_9_0" index="0" disallow="tram rail_urban rail rail_electric rail_fast ship" speed="6.38" length="9.70" shape="509.31,412.49 510.85,410.48 511.20,408.45 510.34,406.42 508.29,404.37"/>
    </edge>
    <edge id=":1313365829_10" function="internal">
        <lane id=":1313365829_10_0" index="0" disallow="tram rail_urban rail rail_electric rail_fast ship" speed="8.33" length="15.04" shape="509.31,412.49 511.83,409.73 514.08,406.71 516.26,403.63 518.60,400.69"/>
    </edge>
    <edge id=":1313365829_11" function="internal">
        <lane id=":1313365829_11_0" index="0" disallow="tram rail_urban rail rail_electric rail_fast ship" speed="8.49" length="13.87" shape="509.31,412.49 512.59,410.03 515.77,408.88 518.84,409.05 521.79,410.54"/>
    </edge>
    <edge id=":1313365838_0" function="internal">
        <lane id=":1313365838_0_0" index="0" disallow="tram rail_urban rail rail_electric rail_fast ship" speed="13.89" length="11.66" shape="595.66,457.61 586.00,451.08"/>
    </edge>
    <edge id=":1313365838_1" function="internal">
        <lane id=":1313365838_1_0" index="0" disallow="tram rail_urban rail rail_electric rail_fast ship" speed="3.65" length="2.34" shape="595.66,457.61 595.12,456.27 595.25,455.39"/>
    </edge>
    <edge id=":1313365838_6" function="internal">
        <lane id=":1313365838_6_0" index="0" disallow="tram rail_urban rail rail_electric rail_fast ship" speed="3.65" length="2.34" shape="595.25,455.39 596.03,454.95 597.47,454.97"/>
    </edge>
    <edge id=":1313365838_2" function="internal">
        <lane id=":1313365838_2_0" index="0" disallow="tram rail_urban rail rail_electric rail_fast ship" speed="13.89" length="11.69" shape="587.78,448.42 597.47,454.97"/>
    </edge>
    <edge id=":1313365838_3" function="internal">
        <lane id=":1313365838_3_0" index="0" disallow="tram rail_urban rail rail_electric rail_fast ship" speed="3.65" length="2.34" shape="587.78,448.42 588.34,449.76 588.22,450.64"/>
    </edge>
    <edge id=":1313365838_7" function="internal">
        <lane id=":1313365838_7_0" index="0" disallow="tram rail_urban rail rail_electric rail_fast ship" speed="3.65" length="2.34" shape="588.22,450.64 587.44,451.08 586.00,451.08"/>
    </edge>
    <edge id=":1313365838_4" function="internal">
        <lane id=":1313365838_4_0" index="0" disallow="tram rail_urban rail rail_electric rail_fast ship" speed="5.51" length="9.26" shape="585.39,457.35 587.92,456.12 588.86,454.67 588.22,452.99 586.00,451.08"/>
    </edge>
    <edge id=":1313365838_5" function="internal">
        <lane id=":1313365838_5_0" index="0" disallow="tram rail_urban rail rail_electric rail_fast ship" speed="10.38" length="12.46" shape="585.39,457.35 590.06,455.88 593.63,455.00 596.10,454.70 597.47,454.97"/>
    </edge>
    <edge id=":1360387423_0" function="internal">
        <lane id=":1360387423_0_0" index="0" disallow="tram rail_urban rail rail_electric rail_fast ship" speed="3.65" length="4.67" shape="351.33,523.86 351.08,522.45 351.37,521.60 352.23,521.34 353.64,521.65"/>
    </edge>
    <edge id=":1391340089_0" function="internal">
        <lane id=":1391340089_0_0" index="0" disallow="tram rail_urban rail rail_electric rail_fast ship" speed="8.33" length="14.48" shape="339.83,833.99 337.51,832.91 334.39,832.53 330.46,832.85 325.72,833.86"/>
    </edge>
    <edge id=":1391340089_1" function="internal">
        <lane id=":1391340089_1_0" index="0" disallow="tram rail_urban rail rail_electric rail_fast ship" speed="8.33" length="16.37" shape="339.83,833.99 336.39,831.82 332.63,829.61 329.32,827.07 327.24,823.92"/>
    </edge>
    <edge id=":1391340089_2" function="internal">
        <lane id=":1391340089_2_0" index="0" disallow="tram rail_urban rail rail_electric rail_fast ship" speed="5.66" length="9.26" shape="339.83,833.99 337.83,832.05 337.30,830.28 338.24,828.70 340.66,827.30"/>
    </edge>
    <edge id=":1391340089_3" function="internal">
        <lane id=":1391340089_3_0" index="0" disallow="tram rail_urban rail rail_electric rail_fast ship" speed="7.82" length="14.17" shape="329.82,821.58 331.64,825.30 334.06,827.49 337.06,828.16 340.66,827.30"/>
    </edge>
    <edge id=":1391340089_4" function="internal">
        <lane id=":1391340089_4_0" index="0" disallow="tram rail_urban rail rail_electric rail_fast ship" speed="7.99" length="14.88" shape="329.82,821.58 330.88,826.20 330.55,829.79 328.83,832.34 325.72,833.86"/>
    </edge>
    <edge id=":1391340089_5" function="internal">
        <lane id=":1391340089_5_0" index="0" disallow="tram rail_urban rail rail_electric rail_fast ship" speed="3.76" length="5.09" shape="329.82,821.58 330.06,823.13 329.70,824.04 328.76,824.30 327.24,823.92"/>
    </edge>
    <edge id=":1391340089_6" function="internal">
        <lane id=":1391340089_6_0" index="0" disallow="tram rail_urban rail rail_electric rail_fast ship" speed="6.13" length="8.32" shape="324.90,830.77 326.66,829.92 327.63,828.49 327.82,826.49 327.24,823.92"/>
    </edge>
    <edge id=":1391340089_7" function="internal">
        <lane id=":1391340089_7_0" index="0" disallow="tram rail_urban rail rail_electric rail_fast ship" speed="8.33" length="16.15" shape="324.90,830.77 328.76,829.96 332.86,829.28 336.93,828.47 340.66,827.30"/>
    </edge>
    <edge id=":1391340089_8" function="internal">
        <lane id=":1391340089_8_0" index="0" disallow="tram rail_urban rail rail_electric rail_fast ship" speed="3.65" length="4.67" shape="324.90,830.77 326.27,831.24 326.86,831.91 326.68,832.78 325.72,833.86"/>
    </edge>
    <edge id=":1447721764_0" function="internal">
        <lane id=":1447721764_0_0" index="0" disallow="tram rail_urban rail rail_electric rail_fast ship" speed="8.33" length="1.68" shape="182.73,870.02 184.37,869.66"/>
    </edge>
    <edge id=":1447721764_1" function="internal">
        <lane id=":1447721764_1_0" index="0" disallow="tram rail_urban rail rail_electric rail_fast ship" speed="8.33" length="1.73" shape="183.67,866.54 181.98,866.91"/>
    </edge>
    <edge id=":1568177329_0" function="internal">
        <lane id=":1568177329_0_0" index="0" disallow="tram rail_urban rail rail_electric rail_fast ship" speed="8.33" length="0.48" shape="260.13,571.32 260.27,571.30 260.36,571.29 260.46,571.29 260.60,571.30"/>
    </edge>
    <edge id=":1576536102_0" function="internal">
        <lane id=":1576536102_0_0" index="0" disallow="tram rail_urban rail rail_electric rail_fast ship" speed="8.33" length="0.10" shape="347.43,139.38 347.43,139.38"/>
    </edge>
    <edge id=":1576653309_0" function="internal">
        <lane id=":1576653309_0_0" index="0" disallow="tram rail_urban rail rail_electric rail_fast ship" speed="8.33" length="0.16" shape="580.45,365.60 580.40,365.61 580.37,365.61 580.34,365.62 580.29,365.63"/>
    </edge>
    <edge id=":1576653309_1" function="internal">
        <lane id=":1576653309_1_0" index="0" disallow="tram rail_urban rail rail_electric rail_fast ship" speed="8.33" length="0.49" shape="579.47,362.54 579.61,362.50 579.71,362.48 579.81,362.46 579.95,362.44"/>
    </edge>
    <edge id=":1576779551_0" function="internal">
        <lane id=":1576779551_0_0" index="0" disallow="tram rail_urban rail rail_electric rail_fast ship" speed="13.89" length="0.30" shape="607.01,465.33 606.76,465.17"/>
    </edge>
    <edge id=":1576779551_1" function="internal">
        <lane id=":1576779551_1_0" index="0" disallow="tram rail_urban rail rail_electric rail_fast ship" speed="13.89" length="0.30" shape="608.54,462.51 608.79,462.67"/>
    </edge>
    <edge id=":1612244782_0" function="internal">
        <lane id=":1612244782_0_0" index="0" disallow="tram rail_urban rail rail_electric rail_fast ship" speed="1.39" length="0.28" shape="869.56,729.45 869.46,729.19"/>
    </edge>
    <edge id=":1612244782_1" function="internal">
        <lane id=":1612244782_1_0" index="0" disallow="tram rail_urban rail rail_electric rail_fast ship" speed="1.39" length="0.31" shape="872.43,727.99 872.54,728.28"/>
    </edge>
    <edge id=":1635744225_0" function="internal">
        <lane id=":1635744225_0_0" index="0" disallow="tram rail_urban rail rail_electric rail_fast ship" speed="13.89" length="0.30" shape="164.63,964.52 164.89,964.67"/>
        <lane id=":1635744225_0_1" index="1" disallow="tram rail_urban rail rail_electric rail_fast ship" speed="13.89" length="0.30" shape="163.00,967.28 163.26,967.43"/>
        <lane id=":1635744225_0_2" index="2" disallow="tram rail_urban rail rail_electric rail_fast ship" speed="13.89" length="0.30" shape="161.37,970.03 161.63,970.18"/>
    </edge>
    <edge id=":1635744271_0" function="internal">
        <lane id=":1635744271_0_0" index="0" disallow="tram rail_urban rail rail_electric rail_fast ship" speed="13.89" length="0.28" shape="157.94,986.24 158.08,986.03"/>
        <lane id=":1635744271_0_1" index="1" disallow="tram rail_urban rail rail_electric rail_fast ship" speed="13.89" length="0.28" shape="160.62,987.99 160.79,987.73"/>
    </edge>
    <edge id=":18220767_0" function="internal">
        <lane id=":18220767_0_0" index="0" disallow="tram rail_urban rail rail_electric rail_fast ship" speed="8.33" length="11.06" shape="925.42,160.20 917.51,152.47"/>
    </edge>
    <edge id=":18220767_1" function="internal">
        <lane id=":18220767_1_0" index="0" disallow="tram rail_urban rail rail_electric rail_fast ship" speed="6.51" length="8.98" shape="925.40,152.23 923.47,153.76 921.51,154.31 919.52,153.88 917.51,152.47"/>
    </edge>
    <edge id=":185859306_0" function="internal">
        <lane id=":185859306_0_0" index="0" disallow="tram rail_urban rail rail_electric rail_fast ship" speed="8.33" length="8.35" shape="778.50,268.99 776.05,269.42 774.51,270.49 772.97,271.57 770.52,272.05"/>
        <lane id=":185859306_0_1" index="1" disallow="tram rail_urban rail rail_electric rail_fast ship" speed="8.33" length="8.35" shape="778.50,268.99 770.54,268.85"/>
    </edge>
    <edge id=":185859306_2" function="internal">
        <lane id=":185859306_2_0" index="0" disallow="tram rail_urban rail rail_electric rail_fast ship" speed="8.33" length="8.03" shape="770.56,265.65 778.59,265.79"/>
    </edge>
    <edge id=":18926931_0" function="internal">
        <lane id=":18926931_0_0" index="0" disallow="tram rail_urban rail rail_electric rail_fast ship" speed="6.83" length="9.30" shape="389.03,337.45 386.78,336.48 384.67,336.44 382.70,337.32 380.87,339.14"/>
    </edge>
    <edge id=":18926931_1" function="internal">
        <lane id=":18926931_1_0" index="0" disallow="tram rail_urban rail rail_electric rail_fast ship" speed="13.89" length="14.25" shape="389.03,337.45 385.96,335.50 383.07,333.54 380.22,331.52 377.31,329.34"/>
    </edge>
    <edge id=":18926931_2" function="internal">
        <lane id=":18926931_2_0" index="0" disallow="tram rail_urban rail rail_electric rail_fast ship" speed="3.65" length="2.34" shape="389.03,337.45 388.43,336.14 388.51,335.25"/>
    </edge>
    <edge id=":18926931_9" function="internal">
        <lane id=":18926931_9_0" index="0" disallow="tram rail_urban rail rail_electric rail_fast ship" speed="3.65" length="2.34" shape="388.51,335.25 389.28,334.78 390.72,334.74"/>
    </edge>
    <edge id=":18926931_3" function="internal">
        <lane id=":18926931_3_0" index="0" disallow="tram rail_urban rail rail_electric rail_fast ship" speed="13.89" length="13.95" shape="379.26,326.80 382.13,328.95 384.89,330.92 387.69,332.81 390.72,334.74"/>
    </edge>
    <edge id=":18926931_4" function="internal">
        <lane id=":18926931_4_0" index="0" disallow="tram rail_urban rail rail_electric rail_fast ship" speed="7.99" length="5.74" shape="379.26,326.80 381.99,329.58 382.66,331.29"/>
    </edge>
    <edge id=":18926931_5" function="internal">
        <lane id=":18926931_5_0" index="0" disallow="tram rail_urban rail rail_electric rail_fast ship" speed="3.65" length="2.34" shape="379.26,326.80 379.72,328.16 379.56,329.04"/>
    </edge>
    <edge id=":18926931_10" function="internal">