<?xml version="1.0" encoding="UTF-8"?>

<!-- generated on 12/16/25 15:11:25 by Eclipse SUMO polyconvert Version 1.5.0
<configuration xmlns:xsi="http://www.w3.org/2001/XMLSchema-instance" xsi:noNamespaceSchemaLocation="http://sumo.dlr.de/xsd/polyconvertConfiguration.xsd">

    <input>
        <net-file value="munich_center.net.xml"/>
        <osm-files value="munich_center_raw.osm"/>
    </input>

    <output>
        <output-file value="munich_center.poly.xml"/>
    </output>

    <processing>
        <poi-layer-offset value="5"/>
    </processing>

</configuration>
-->

<additional xmlns:xsi="http://www.w3.org/2001/XMLSchema-instance" xsi:noNamespaceSchemaLocation="http://sumo.dlr.de/xsd/additional_file.xsd">
    <location netOffset="-690941.49,-5334185.83" convBoundary="-0.00,-0.00,1177.63,1054.47" origBoundary="11.566634,48.132166,11.582351,48.141565" projParameter="+proj=utm +zone=32 +ellps=WGS84 +datum=WGS84 +units=m +no_defs"/>

    <poly id="100318403" type="building" color="255,230,230" fill="1" layer="-1.00" shape="612.741150,177.640823 607.194023,171.369098 602.297663,176.801565 598.313385,182.353584 606.888687,191.385836 612.741150,177.640823"/>
    <poly id="100900834" type="building" color="255,230,230" fill="1" layer="-1.00" shape="789.644332,131.330397 785.754503,140.946495 796.556090,145.325065 801.964153,131.965859 798.150356,130.425008 796.639952,134.157260 789.644332,131.330397"/>
    <poly id="100900838" type="building" color="255,230,230" fill="1" layer="-1.00" shape="848.368999,98.285098 839.632927,107.827695 849.601756,117.496729 853.824583,121.499074 862.700149,112.016806 848.368999,98.285098"/>
    <poly id="100900844" type="building" color="255,230,230" fill="1" layer="-1.00" shape="862.700149,112.016806 853.824583,121.499074 852.403543,123.009086 865.690185,135.459660 875.987170,124.456290 862.700149,112.016806"/>
    <poly id="100900846" type="building" color="255,230,230" fill="1" layer="-1.00" shape="885.222165,166.444421 880.082164,179.133854 896.659461,185.842521 900.857874,175.469135 901.799495,173.153102 885.222165,166.444421"/>
    <poly id="100900850" type="building" color="255,230,230" fill="1" layer="-1.00" shape="622.634394,122.185902 634.307576,112.107173 622.398606,98.312542 610.725793,108.380182 616.934714,115.575280 622.634394,122.185902"/>
    <poly id="100900856" type="building" color="255,230,230" fill="1" layer="-1.00" shape="659.941959,128.820409 657.465696,114.028771 657.299074,112.999589 642.504753,115.752907 639.237298,116.355547 634.307576,112.107173 622.634394,122.185902 631.964849,132.244824 634.721542,133.104846 657.664714,129.211430 659.941959,128.820409"/>
    <poly id="100900857" type="building" color="255,230,230" fill="1" layer="-1.00" shape="778.553178,138.257391 782.647588,128.536885 781.051464,127.938210 780.544772,121.056418 782.318399,120.136765 777.837604,110.941063 759.361082,120.669132 760.323332,130.848388 778.553178,138.257391"/>
    <poly id="100900862" type="building" color="255,230,230" fill="1" layer="-1.00" shape="722.762396,96.433980 707.930114,97.205416 708.926411,104.370625 707.925753,105.560971 698.969612,106.785199 701.086809,121.842985 703.858421,121.368408 723.880551,117.967074 722.762396,96.433980"/>
    <poly id="100900863" type="building" color="255,230,230" fill="1" layer="-1.00" shape="896.659461,185.842521 912.582811,192.284530 916.272308,183.095706 915.268852,181.259618 900.857874,175.469135 896.659461,185.842521"/>
    <poly id="100900866" type="building" color="255,230,230" fill="1" layer="-1.00" shape="875.987170,124.456290 865.690185,135.459660 877.778334,146.779721 878.921491,145.560802 888.074952,135.787486 875.987170,124.456290"/>
    <poly id="100900872" type="building" color="255,230,230" fill="1" layer="-1.00" shape="610.725793,108.380182 622.398606,98.312542 619.496858,95.333712 630.966255,84.447071 621.096338,74.703874 601.469338,94.329512 601.506115,97.902217 608.910576,106.316702 610.725793,108.380182"/>
    <poly id="100900873" type="building" color="255,230,230" fill="1" layer="-1.00" shape="888.074952,135.787486 878.921491,145.560802 890.951940,156.823328 892.605858,155.031856 900.119913,147.061643 888.074952,135.787486"/>
    <poly id="100900875" type="building" color="255,230,230" fill="1" layer="-1.00" shape="806.799711,149.462430 816.462305,153.380068 821.862971,140.020631 812.199984,136.114098 806.799711,149.462430"/>
    <poly id="100900887" type="building" color="255,230,230" fill="1" layer="-1.00" shape="801.964153,131.965859 796.556090,145.325065 798.260820,146.016393 806.799711,149.462430 812.199984,136.114098 801.964153,131.965859"/>
    <poly id="100900889" type="building" color="255,230,230" fill="1" layer="-1.00" shape="674.945726,110.475365 666.921395,112.120268 657.465696,114.028771 659.941959,128.820409 677.132533,125.902631 674.945726,110.475365"/>
    <poly id="100900891" type="building" color="255,230,230" fill="1" layer="-1.00" shape="804.447924,115.193055 819.001161,108.081757 812.359067,94.485517 797.805433,101.607945 804.447924,115.193055"/>
    <poly id="100900892" type="building" color="255,230,230" fill="1" layer="-1.00" shape="913.038166,159.166199 905.516667,167.136146 917.777998,178.617874 925.270489,170.624718 913.038166,159.166199"/>
    <poly id="100900893" type="building" color="255,230,230" fill="1" layer="-1.00" shape="853.911977,153.767747 848.772038,166.457207 864.306043,172.741381 869.446013,160.051935 853.911977,153.767747"/>
    <poly id="100900895" type="building" color="255,230,230" fill="1" layer="-1.00" shape="902.610961,125.860910 913.695910,136.223936 922.526938,126.517739 911.821385,116.389943 910.580025,117.427544 902.610961,125.860910"/>
    <poly id="100900898" type="building" color="255,230,230" fill="1" layer="-1.00" shape="821.862971,140.020631 816.462305,153.380068 832.767835,159.979295 838.161095,146.619623 831.511066,143.926681 821.862971,140.020631"/>
    <poly id="100900899" type="building" color="255,230,230" fill="1" layer="-1.00" shape="869.446013,160.051935 864.306043,172.741381 880.082164,179.133854 885.222165,166.444421 869.446013,160.051935"/>
    <poly id="100900900" type="building" color="255,230,230" fill="1" layer="-1.00" shape="885.233530,93.034651 877.102640,101.852040 889.782611,113.959669 898.050013,105.291516 895.257373,102.616603 896.207472,101.602609 888.856141,94.502392 887.787009,95.512395 885.233530,93.034651"/>
    <poly id="100900902" type="building" color="255,230,230" fill="1" layer="-1.00" shape="913.695910,136.223936 924.214329,146.156318 934.280417,135.156429 926.456030,127.951281 925.340753,129.226756 922.526938,126.517739 913.695910,136.223936"/>
    <poly id="100900903" type="building" color="255,230,230" fill="1" layer="-1.00" shape="921.492733,186.219225 918.368457,192.545336 941.404259,203.876710 948.356506,192.894784 927.536012,173.026067 919.297680,181.494881 922.325331,184.489223 924.492638,181.824890 930.574740,187.458446 929.277150,189.506633 921.492733,186.219225"/>
    <poly id="100900904" type="building" color="255,230,230" fill="1" layer="-1.00" shape="804.447924,115.193055 797.805433,101.607945 782.532789,109.073472 788.826795,121.945937 790.492876,122.012905 804.447924,115.193055"/>
    <poly id="100900906" type="building" color="255,230,230" fill="1" layer="-1.00" shape="838.161095,146.619623 832.767835,159.979295 848.772038,166.457207 853.911977,153.767747 854.212577,153.021250 852.500416,152.329655 852.727353,151.780958 849.891109,150.628882 849.631433,151.265491 843.260389,148.693149 843.496255,148.100247 840.821441,147.020345 840.585948,147.602134 838.161095,146.619623"/>
    <poly id="100900908" type="building" color="255,230,230" fill="1" layer="-1.00" shape="898.050013,105.291516 889.782611,113.959669 902.610961,125.860910 910.580025,117.427544 898.050013,105.291516"/>
    <poly id="100900909" type="building" color="255,230,230" fill="1" layer="-1.00" shape="900.119913,147.061643 892.605858,155.031856 904.382961,166.074520 905.516667,167.136146 913.038166,159.166199 911.897020,158.104323 906.553567,153.096373 900.119913,147.061643"/>
    <poly id="1016158682" type="building" color="255,230,230" fill="1" layer="-1.00" shape="585.121181,620.802836 599.836873,615.688081 598.667925,612.344483 594.862536,613.674564 592.239367,606.165612 596.715010,604.613200 595.607425,601.438549 588.298657,603.975320 590.310019,609.739237 585.118384,611.545830 583.595726,607.200168 580.717229,608.205262 585.121181,620.802836"/>
    <poly id="1016158683" type="building" color="255,230,230" fill="1" layer="-1.00" shape="601.041883,619.733832 596.982831,621.077669 600.735461,633.775833 620.712673,627.657974 619.081633,615.653913 618.528968,613.921983 604.694398,618.521022 601.041883,619.733832"/>
    <poly id="104394143" type="building" color="255,230,230" fill="1" layer="-1.00" shape="386.462273,917.016806 389.748207,915.847239 388.563225,912.536527 385.276917,913.717208 386.462273,917.016806"/>
    <poly id="104394143#1" type="historic" color="128,255,128" fill="1" layer="-1.00" shape="386.462273,917.016806 389.748207,915.847239 388.563225,912.536527 385.276917,913.717208 386.462273,917.016806"/>
    <poly id="104394146" type="building" color="255,230,230" fill="1" layer="-1.00" shape="444.588745,896.420277 447.882143,895.250991 446.697188,891.940267 443.403416,893.120666 444.588745,896.420277"/>
    <poly id="104394146#1" type="historic" color="128,255,128" fill="1" layer="-1.00" shape="444.588745,896.420277 447.882143,895.250991 446.697188,891.940267 443.403416,893.120666 444.588745,896.420277"/>
    <poly id="104394148" type="building" color="255,230,230" fill="1" layer="-1.00" shape="415.327587,906.289057 418.613906,905.108393 417.428565,901.808788 414.135178,902.978091 415.327587,906.289057"/>
    <poly id="104394148#1" type="historic" color="128,255,128" fill="1" layer="-1.00" shape="415.327587,906.289057 418.613906,905.108393 417.428565,901.808788 414.135178,902.978091 415.327587,906.289057"/>
    <poly id="108235086" type="building" color="255,230,230" fill="1" layer="-1.00" shape="934.280417,135.156429 938.383674,130.287306 944.442221,123.080531 937.393093,109.859887 924.563907,126.185520 926.456030,127.951281 934.280417,135.156429"/>
    <poly id="108235110" type="building" color="255,230,230" fill="1" layer="-1.00" shape="828.170555,119.381744 825.364320,113.112675 831.798270,108.922424 836.184527,104.051594 839.632927,107.827695 833.498294,114.197565 828.170555,119.381744"/>
    <poly id="108235139" type="building" color="255,230,230" fill="1" layer="-1.00" shape="815.163027,123.930195 814.062788,129.868036 824.276296,134.015548 828.108554,124.119390 815.163027,123.930195"/>
    <poly id="108235160" type="building" color="255,230,230" fill="1" layer="-1.00" shape="824.276296,134.015548 834.089536,138.327679 831.511066,143.926681 838.161095,146.619623 843.118377,134.046418 828.108554,124.119390 824.276296,134.015548"/>
    <poly id="108235170" type="building" color="255,230,230" fill="1" layer="-1.00" shape="944.442221,123.080531 952.012178,115.223516 962.761709,104.057453 968.958258,97.623033 961.587077,88.452591 958.732993,91.828199 955.202058,88.294028 952.297409,91.400916 953.560934,92.589292 952.209053,94.034844 950.937716,92.857332 948.071760,95.921015 949.328591,97.086914 945.427340,101.261860 943.910514,99.853592 938.449070,105.689631 939.965522,107.109012 937.393093,109.859887 944.442221,123.080531"/>
    <poly id="108235176" type="building" color="255,230,230" fill="1" layer="-1.00" shape="853.824583,121.499074 852.403543,123.009086 847.610322,128.244547 843.118377,134.046418 828.108554,124.119390 828.170555,119.381744 833.498294,114.197565 843.911269,123.725713 849.601756,117.496729 853.824583,121.499074"/>
    <poly id="108235217" type="building" color="255,230,230" fill="1" layer="-1.00" shape="825.364320,113.112675 815.427037,118.498375 815.163027,123.930195 828.108554,124.119390 828.170555,119.381744 825.364320,113.112675"/>
    <poly id="108235220" type="building" color="255,230,230" fill="1" layer="-1.00" shape="814.062788,129.868036 803.918796,126.312557 804.807945,123.783355 815.163027,123.930195 814.062788,129.868036"/>
    <poly id="108574560" type="building" color="255,230,230" fill="1" layer="-1.00" shape="700.614419,168.178493 688.190152,180.000978 697.213910,189.426684 703.383631,183.558532 709.638178,177.604219 700.614419,168.178493"/>
    <poly id="108574586" type="building" color="255,230,230" fill="1" layer="-1.00" shape="1040.854628,189.233747 1031.025721,192.052578 1026.889237,189.477134 1019.716121,197.714531 1018.517921,198.575539 1016.453841,198.606409 1018.691777,209.596251 1044.254175,204.446017 1040.854628,189.233747"/>
    <poly id="108574590" type="building" color="255,230,230" fill="1" layer="-1.00" shape="1019.716121,197.714531 1026.889237,189.477134 1021.078716,184.408891 1011.850817,175.532100 1004.395661,184.850414 1019.716121,197.714531"/>
    <poly id="108574614" type="building" color="255,230,230" fill="1" layer="-1.00" shape="504.320226,221.586291 496.429655,226.139804 503.110606,239.036003 505.452520,243.386798 502.529227,245.280528 490.093260,253.464790 488.176870,249.306259 476.435566,223.156472 480.122144,221.822323 482.323081,221.039268 486.152870,219.654285 497.825623,213.358154 499.325410,215.500051 500.427182,214.847108 504.320226,221.586291"/>
    <poly id="108574620" type="building" color="255,230,230" fill="1" layer="-1.00" shape="692.376656,107.721446 691.187316,99.426038 683.097900,99.900499 683.963231,109.197525 674.945726,110.475365 677.132533,125.902631 701.086809,121.842985 698.969612,106.785199 692.376656,107.721446"/>
    <poly id="108574639" type="building" color="255,230,230" fill="1" layer="-1.00" shape="486.152870,219.654285 497.825623,213.358154 503.713153,209.015756 511.523779,202.623773 503.542021,194.323605 484.299315,213.172509 486.152870,219.654285"/>
    <poly id="108574648" type="building" color="255,230,230" fill="1" layer="-1.00" shape="1022.375360,180.836409 1029.995808,187.011251 1035.060046,180.805930 1027.447034,174.631331 1022.375360,180.836409"/>
    <poly id="108574666" type="building" color="255,230,230" fill="1" layer="-1.00" shape="1074.699988,198.258194 1073.183540,189.740294 1068.405815,190.737039 1062.189976,184.653794 1043.622536,188.647949 1040.854628,189.233747 1044.254175,204.446017 1046.488282,204.009197 1054.969791,202.280036 1074.699988,198.258194"/>
    <poly id="108574683" type="building" color="255,230,230" fill="1" layer="-1.00" shape="523.711637,259.262923 514.402043,266.161019 524.350250,277.564452 527.925211,278.006772 537.333741,272.380383 530.137728,261.525221 529.233836,265.166572 523.711637,259.262923"/>
    <poly id="108574690" type="building" color="255,230,230" fill="1" layer="-1.00" shape="1086.050342,183.618913 1072.519931,185.990760 1073.183540,189.740294 1074.699988,198.258194 1087.714834,195.713280 1086.050342,183.618913"/>
    <poly id="108574700" type="building" color="255,230,230" fill="1" layer="-1.00" shape="1007.196297,158.208284 1002.132073,164.413629 1022.375360,180.836409 1027.447034,174.631331 1007.196297,158.208284"/>
    <poly id="108574719" type="building" color="255,230,230" fill="1" layer="-1.00" shape="1004.395661,184.850414 1011.850817,175.532100 994.711707,162.484599 987.477193,171.220652 1004.395661,184.850414"/>
    <poly id="108574738" type="building" color="255,230,230" fill="1" layer="-1.00" shape="530.137728,261.525221 537.333741,272.380383 538.673939,271.501781 548.467482,265.053841 541.271480,254.198664 539.794392,255.161692 531.668376,260.519479 530.137728,261.525221"/>
    <poly id="1108040540" type="building" color="255,230,230" fill="1" layer="-1.00" shape="748.476789,154.984461 755.026013,167.131119 758.083410,163.684349 759.542654,163.922396 761.442029,162.139114 761.404181,159.934877 765.982360,161.779474 778.062008,166.467869 782.119980,156.056324 770.039940,151.379034 757.973643,146.735609 748.476789,154.984461"/>
    <poly id="112482793" type="building" color="255,230,230" fill="1" layer="-1.00" shape="954.838720,131.540231 964.907833,140.211492 974.701716,129.336050 965.673741,120.933349 957.291711,129.241528 954.838720,131.540231"/>
    <poly id="112482798" type="building" color="255,230,230" fill="1" layer="-1.00" shape="941.664249,143.948973 949.991091,151.716179 951.611104,150.936064 961.164535,146.338799 966.025910,141.294858 964.907833,140.211492 954.838720,131.540231 947.774375,138.312716 942.886273,142.821721 941.664249,143.948973"/>
    <poly id="112482802" type="building" color="255,230,230" fill="1" layer="-1.00" shape="1090.893862,157.145515 1089.850579,156.053508 1084.672495,161.654152 1073.979693,173.122306 1078.757173,178.567594 1089.931414,166.069753 1100.064535,179.260633 1107.082673,178.305752 1106.790106,176.593629 1095.668730,162.668613 1095.698578,161.779523 1090.893862,157.145515"/>
    <poly id="112482803" type="building" color="255,230,230" fill="1" layer="-1.00" shape="984.205029,183.727901 972.878951,172.566679 972.015157,173.450042 964.075114,181.461504 975.401188,192.622709 984.205029,183.727901"/>
    <poly id="112482805" type="building" color="255,230,230" fill="1" layer="-1.00" shape="965.673741,120.933349 974.701716,129.336050 986.630909,116.974607 977.425942,107.631354 970.891934,115.022417 965.673741,120.933349"/>
    <poly id="112482815" type="building" color="255,230,230" fill="1" layer="-1.00" shape="987.477193,171.220652 994.711707,162.484599 996.697879,160.114619 990.736256,155.330620 988.373563,158.711573 980.709124,152.735587 973.011935,160.833070 987.477193,171.220652"/>
    <poly id="112482817" type="building" color="255,230,230" fill="1" layer="-1.00" shape="1002.132073,164.413629 1007.196297,158.208284 995.378343,148.387902 988.888537,143.141138 983.432639,149.255475 990.736256,155.330620 996.697879,160.114619 1002.132073,164.413629"/>
    <poly id="112482818" type="building" color="255,230,230" fill="1" layer="-1.00" shape="939.932920,166.254416 948.938400,156.676498 951.911837,153.516288 949.991091,151.716179 941.664249,143.948973 929.692404,156.698485 939.932920,166.254416"/>
    <poly id="112482819" type="building" color="255,230,230" fill="1" layer="-1.00" shape="966.025910,141.294858 961.164535,146.338799 968.606545,152.507566 966.181809,155.074239 973.011935,160.833070 980.709124,152.735587 972.819638,146.585169 966.025910,141.294858"/>
    <poly id="112482820" type="building" color="255,230,230" fill="1" layer="-1.00" shape="1059.545277,121.212768 1074.087569,111.553846 1065.109649,98.112519 1051.146175,107.390351 1050.559902,107.771215 1055.389374,114.998407 1059.545277,121.212768"/>
    <poly id="112482824" type="building" color="255,230,230" fill="1" layer="-1.00" shape="1016.453841,198.606409 1008.318505,202.005038 986.545319,181.236285 984.205029,183.727901 975.401188,192.622709 989.050799,205.341676 998.136249,213.801984 1000.794565,211.376676 1002.475348,213.224383 1018.691777,209.596251 1016.453841,198.606409"/>
    <poly id="112482825" type="building" color="255,230,230" fill="1" layer="-1.00" shape="1026.072608,153.445542 1016.730717,145.966815 1014.685361,144.329394 1020.117469,138.481313 1022.952827,140.990834 1024.626480,139.500465 1030.223685,134.503521 1037.102358,141.921855 1026.072608,153.445542"/>
    <poly id="112482828" type="building" color="255,230,230" fill="1" layer="-1.00" shape="1025.988336,105.133022 1028.381772,107.939246 1026.113299,109.621049 1024.837328,110.579582 1024.658762,115.012919 1022.241051,117.590933 1016.858201,117.087641 1010.983696,111.038167 1015.906678,104.160519 1009.812308,98.226056 1014.176040,93.365723 1025.988336,105.133022"/>
    <poly id="112482829" type="building" color="255,230,230" fill="1" layer="-1.00" shape="1041.184020,125.937062 1055.389374,114.998407 1059.545277,121.212768 1047.172227,132.813721 1041.184020,125.937062"/>
    <poly id="112482831" type="building" color="255,230,230" fill="1" layer="-1.00" shape="980.709124,152.735587 972.819638,146.585169 984.846963,134.627557 991.518686,139.780284 988.888537,143.141138 983.432639,149.255475 980.709124,152.735587"/>
    <poly id="112482833" type="building" color="255,230,230" fill="1" layer="-1.00" shape="964.075114,181.461504 972.015157,173.450042 960.896354,165.433369 959.539674,166.578352 953.954409,172.332338 964.075114,181.461504"/>
    <poly id="112482834" type="building" color="255,230,230" fill="1" layer="-1.00" shape="977.425942,107.631354 986.630909,116.974607 989.024803,118.879612 997.060930,110.893653 1009.812308,98.226056 1014.176040,93.365723 1002.555222,82.105553 996.244023,88.847624 984.983234,100.819810 981.918951,104.466508 980.693733,103.468554 977.425942,107.631354"/>
    <poly id="112482836" type="building" color="255,230,230" fill="1" layer="-1.00" shape="1030.223685,134.503521 1041.184020,125.937062 1047.172227,132.813721 1037.102358,141.921855 1030.223685,134.503521"/>
    <poly id="112482837" type="building" color="255,230,230" fill="1" layer="-1.00" shape="991.518686,139.780284 999.507654,130.535495 1006.053196,136.562970 995.378343,148.387902 988.888537,143.141138 991.518686,139.780284"/>
    <poly id="112482843" type="building" color="255,230,230" fill="1" layer="-1.00" shape="999.507654,130.535495 1006.053196,136.562970 1010.243929,140.408595 1018.458685,131.538570 1016.118020,129.379436 1014.503117,131.116554 1007.292531,124.488194 1000.002705,117.779303 993.395418,124.911981 999.507654,130.535495"/>
    <poly id="112482844" type="building" color="255,230,230" fill="1" layer="-1.00" shape="959.539674,166.578352 948.938400,156.676498 939.932920,166.254416 950.375368,176.006286 951.825435,174.519523 953.954409,172.332338 959.539674,166.578352"/>
    <poly id="115851604" type="building" color="255,230,230" fill="1" layer="-1.00" shape="1041.643417,601.083377 1036.524132,602.947630 1036.845080,603.370070 1027.912878,610.113116 1026.981087,610.805041 1032.434598,618.064315 1043.604213,609.671826 1041.643417,601.083377"/>
    <poly id="115851605" type="building" color="255,230,230" fill="1" layer="-1.00" shape="1035.927455,622.721023 1036.961200,632.969527 1035.896235,633.857251 1035.688211,634.951757 1036.012054,636.175378 1037.120006,636.891262 1045.480169,637.205262 1041.670644,622.902672 1039.953316,619.707453 1035.927455,622.721023"/>
    <poly id="1186340562" type="building" color="255,230,230" fill="1" layer="-1.00" shape="324.646107,742.005424 330.348189,739.848518 325.528724,727.192764 319.826631,729.349676 324.646107,742.005424"/>
    <poly id="1187924428" type="building" color="255,230,230" fill="1" layer="-1.00" shape="667.507034,949.635175 688.635191,941.586850 684.599890,931.115475 663.237353,940.157314 667.507034,949.635175"/>
    <poly id="120048533" type="building" color="255,230,230" fill="1" layer="-1.00" shape="662.460643,200.823859 654.152100,208.734371 665.018550,220.068679 673.319282,212.169047 662.460643,200.823859"/>
    <poly id="120048535" type="building" color="255,230,230" fill="1" layer="-1.00" shape="662.460643,200.823859 665.868357,197.589049 673.792302,190.043956 684.651315,201.378052 673.319282,212.169047 662.460643,200.823859"/>
    <poly id="120048539" type="building" color="255,230,230" fill="1" layer="-1.00" shape="673.792302,190.043956 684.651315,201.378052 697.213910,189.426684 688.190152,180.000978 686.355268,178.081451 673.792302,190.043956"/>
    <poly id="1204684362" type="building" color="255,230,230" fill="1" layer="-1.00" shape="419.625093,672.796269 427.545154,669.790199 431.507495,679.791612 424.846100,684.575459 423.092391,682.458456 422.214248,683.107765 419.625093,672.796269"/>
    <poly id="1204684363" type="building" color="255,230,230" fill="1" layer="-1.00" shape="604.258800,426.937290 603.125011,410.977880 616.342534,410.141018 617.999528,430.713033 617.480930,434.856825 604.258800,426.937290"/>
    <poly id="1213305410" type="building" color="255,230,230" fill="1" layer="-1.00" shape="210.307281,565.895850 208.962843,561.111220 200.985670,537.301903 209.156858,534.582071 218.765580,563.274638 210.307281,565.895850"/>
    <poly id="1213305411" type="building" color="255,230,230" fill="1" layer="-1.00" shape="268.403673,388.997521 265.009272,381.819006 272.969025,378.079712 276.363419,385.258231 268.403673,388.997521"/>
    <poly id="1222284960" type="building" color="255,230,230" fill="1" layer="-1.00" shape="927.186265,955.582233 938.410262,963.079543 945.245610,952.894814 934.021227,945.408605 927.186265,955.582233"/>
    <poly id="122452228" type="building" color="255,230,230" fill="1" layer="-1.00" shape="974.501219,259.182428 975.985259,233.152559 969.938708,230.679964 963.914469,228.208124 960.109918,238.160764 964.471508,239.797990 963.355595,258.630475 974.501219,259.182428"/>
    <poly id="125213620" type="building" color="255,230,230" fill="1" layer="-1.00" shape="298.337295,703.208021 307.508803,726.912819 324.464829,720.704065 337.711601,715.851072 363.119538,706.542779 362.003673,703.612676 370.985880,698.683870 373.718778,692.455676 371.384781,687.426500 368.588159,686.431742 365.791907,685.425871 362.784059,686.515752 356.457802,688.852022 354.077652,682.975730 353.926637,682.592392 298.337295,703.208021"/>
    <poly id="125294895" type="building" color="255,230,230" fill="1" layer="-1.00" shape="835.124856,639.672040 831.139995,631.471985 835.844492,629.092971 837.905129,628.049453 840.155465,626.901036 851.413478,621.192551 856.140716,629.462020 835.124856,639.672040"/>
    <poly id="125294896" type="building" color="255,230,230" fill="1" layer="-1.00" shape="831.139995,631.471985 830.190526,629.804610 826.041194,622.511387 822.199082,615.161712 842.482607,605.472265 850.548435,619.672642 851.413478,621.192551 840.155465,626.901036 839.426555,625.318937 838.780576,623.928763 834.374015,626.084116 835.022230,627.407608 835.844492,629.092971 831.139995,631.471985"/>
    <poly id="125294896#1" type="historic" color="128,255,128" fill="1" layer="-1.00" shape="831.139995,631.471985 830.190526,629.804610 826.041194,622.511387 822.199082,615.161712 842.482607,605.472265 850.548435,619.672642 851.413478,621.192551 840.155465,626.901036 839.426555,625.318937 838.780576,623.928763 834.374015,626.084116 835.022230,627.407608 835.844492,629.092971 831.139995,631.471985"/>
    <poly id="125376398" type="building" color="255,230,230" fill="1" layer="-1.00" shape="1085.345216,463.963079 1069.797474,471.207177 1075.390941,482.064931 1088.229859,473.428144 1093.016001,482.155970 1078.283240,493.076784 1073.790038,496.697707 1066.939124,484.696253 1062.408641,474.341490 1057.227738,462.507373 1062.912545,460.439592 1061.768683,457.686414 1072.765941,453.994538 1064.427613,433.498412 1070.621715,430.902552 1085.345216,463.963079"/>
    <poly id="1266402918" type="building" color="255,230,230" fill="1" layer="-1.00" shape="293.720863,550.615468 290.464254,544.220360 289.632897,542.579285 294.554808,540.373996 299.643641,547.208655 293.720863,550.615468"/>
    <poly id="1273939821" type="building" color="255,230,230" fill="1" layer="-1.00" shape="1032.434598,618.064315 1035.927455,622.721023 1039.953316,619.707453 1043.147825,617.277919 1042.664518,615.036466 1042.542710,613.118680 1044.364515,612.979561 1043.604213,609.671826 1032.434598,618.064315"/>
    <poly id="1273939822" type="building" color="255,230,230" fill="1" layer="-1.00" shape="1019.120656,643.085204 1004.206522,654.322748 1007.030710,658.044654 1009.048994,660.704782 1025.618457,651.403128 1022.002114,646.875795 1019.120656,643.085204"/>
    <poly id="1273939823" type="building" color="255,230,230" fill="1" layer="-1.00" shape="1009.065278,629.819143 988.627018,645.221660 998.689850,658.487933 1004.206522,654.322748 1019.120656,643.085204 1009.065278,629.819143"/>
    <poly id="1273939824" type="building" color="255,230,230" fill="1" layer="-1.00" shape="1032.936794,598.220995 1033.630148,597.754717 1033.545530,595.838179 1031.727666,593.640942 1030.094877,593.029831 1029.371021,593.517339 1024.899291,587.626159 1015.967081,594.369223 1016.038486,594.460629 1027.912878,610.113116 1036.845080,603.370070 1036.524132,602.947630 1032.936794,598.220995"/>
    <poly id="1273939825" type="building" color="255,230,230" fill="1" layer="-1.00" shape="994.544804,610.684423 1006.412148,626.325502 1026.981087,610.805041 1027.912878,610.113116 1016.038486,594.460629 994.544804,610.684423"/>
    <poly id="1273939826" type="building" color="255,230,230" fill="1" layer="-1.00" shape="985.196350,647.810189 988.627018,645.221660 1009.065278,629.819143 1006.412148,626.325502 994.544804,610.684423 970.676225,628.664416 979.690742,640.549213 985.196350,647.810189"/>
    <poly id="1286274460" type="building" color="255,230,230" fill="1" layer="-1.00" shape="1062.299110,222.007923 1074.396918,220.155401 1075.886687,219.927256 1078.272099,235.394791 1064.691997,237.475701 1062.299110,222.007923"/>
    <poly id="1286645829" type="building" color="255,230,230" fill="1" layer="-1.00" shape="828.670570,416.810768 831.613612,421.215249 835.143982,419.208526 831.379399,412.873932 829.122950,409.093281 832.144070,407.837184 835.202387,406.582336 828.858837,390.314660 816.590130,396.834914 818.843637,400.259425 827.620264,415.039879 828.670570,416.810768"/>
    <poly id="1301777516" type="amenity" color="237,199,199" fill="1" layer="-1.00" shape="784.648317,288.386031 791.946639,288.842057 792.123465,286.010825 784.825139,285.554799 784.648317,288.386031"/>
    <poly id="1301777516#1" type="building" color="255,230,230" fill="1" layer="-1.00" shape="784.648317,288.386031 791.946639,288.842057 792.123465,286.010825 784.825139,285.554799 784.648317,288.386031"/>
    <poly id="1311607547" type="building" color="255,230,230" fill="1" layer="-1.00" shape="684.845874,321.401822 688.944264,318.446067 691.701493,322.621719 687.571121,325.420635 684.845874,321.401822"/>