<?xml version="1.0" encoding="UTF-8"?>

<!-- generated on 12/15/25 01:08:39 by Eclipse SUMO netconvert Version 1.5.0
<configuration xmlns:xsi="http://www.w3.org/2001/XMLSchema-instance" xsi:noNamespaceSchemaLocation="http://sumo.dlr.de/xsd/netconvertConfiguration.xsd">

    <input>
        <osm-files value="koesching_raw.osm"/>
    </input>

    <output>
        <output-file value="koesching.net.xml"/>
    </output>

    <projection>
        <proj.utm value="true"/>
    </projection>

    <tls_building>
        <tls.discard-simple value="true"/>
    </tls_building>

    <edge_removal>
        <keep-edges.by-vclass value="passenger"/>
        <remove-edges.isolated value="true"/>
    </edge_removal>

    <junctions>
        <no-turnarounds.tls value="true"/>
        <junctions.join value="true"/>
    </junctions>

    <report>
        <aggregate-warnings value="5"/>
    </report>

</configuration>
-->

<net version="1.3" junctionCornerDetail="5" limitTurnSpeed="5.50" xmlns:xsi="http://www.w3.org/2001/XMLSchema-instance" xsi:noNamespaceSchemaLocation="http://sumo.dlr.de/xsd/net_file.xsd">

    <location netOffset="-678264.23,-5403725.30" convBoundary="0.00,0.00,1550.93,1301.08" origBoundary="11.426062,48.760683,11.447237,48.772554" projParameter="+proj=utm +zone=32 +ellps=WGS84 +datum=WGS84 +units=m +no_defs"/>

    <type id="highway.bridleway" priority="1" numLanes="1" speed="2.78" allow="pedestrian" oneway="1" width="2.00"/>
    <type id="highway.bus_guideway" priority="1" numLanes="1" speed="27.78" allow="bus" oneway="1"/>
    <type id="highway.cycleway" priority="1" numLanes="1" speed="8.33" allow="bicycle" oneway="0" width="1.00"/>
    <type id="highway.footway" priority="1" numLanes="1" speed="2.78" allow="pedestrian" oneway="1" width="2.00"/>
    <type id="highway.ford" priority="1" numLanes="1" speed="2.78" allow="army" oneway="0"/>
    <type id="highway.living_street" priority="2" numLanes="1" speed="2.78" disallow="tram rail_urban rail rail_electric rail_fast ship" oneway="0"/>
    <type id="highway.motorway" priority="14" numLanes="2" speed="39.44" allow="private emergency authority army vip passenger hov taxi bus coach delivery truck trailer motorcycle evehicle custom1 custom2" oneway="1"/>
    <type id="highway.motorway_link" priority="9" numLanes="1" speed="22.22" allow="private emergency authority army vip passenger hov taxi bus coach delivery truck trailer motorcycle evehicle custom1 custom2" oneway="1"/>
    <type id="highway.path" priority="1" numLanes="1" speed="2.78" allow="pedestrian bicycle" oneway="1" width="2.00"/>
    <type id="highway.pedestrian" priority="1" numLanes="1" speed="2.78" allow="pedestrian" oneway="1" width="2.00"/>
    <type id="highway.primary" priority="12" numLanes="2" speed="27.78" disallow="tram rail_urban rail rail_electric rail_fast ship" oneway="0"/>
    <type id="highway.primary_link" priority="7" numLanes="1" speed="22.22" disallow="tram rail_urban rail rail_electric rail_fast ship" oneway="0"/>
    <type id="highway.raceway" priority="15" numLanes="2" speed="83.33" allow="vip" oneway="0"/>
    <type id="highway.residential" priority="3" numLanes="1" speed="13.89" disallow="tram rail_urban rail rail_electric rail_fast ship" oneway="0"/>
    <type id="highway.secondary" priority="11" numLanes="1" speed="27.78" disallow="tram rail_urban rail rail_electric rail_fast ship" oneway="0"/>
    <type id="highway.secondary_link" priority="6" numLanes="1" speed="22.22" disallow="tram rail_urban rail rail_electric rail_fast ship" oneway="0"/>
    <type id="highway.service" priority="1" numLanes="1" speed="5.56" allow="pedestrian delivery bicycle" oneway="0"/>
    <type id="highway.stairs" priority="1" numLanes="1" speed="1.39" allow="pedestrian" oneway="1" width="2.00"/>
    <type id="highway.step" priority="1" numLanes="1" speed="1.39" allow="pedestrian" oneway="1" width="2.00"/>
    <type id="highway.steps" priority="1" numLanes="1" speed="1.39" allow="pedestrian" oneway="1" width="2.00"/>
    <type id="highway.tertiary" priority="10" numLanes="1" speed="22.22" disallow="tram rail_urban rail rail_electric rail_fast ship" oneway="0"/>
    <type id="highway.tertiary_link" priority="5" numLanes="1" speed="22.22" disallow="tram rail_urban rail rail_electric rail_fast ship" oneway="0"/>
    <type id="highway.track" priority="1" numLanes="1" speed="5.56" disallow="tram rail_urban rail rail_electric rail_fast ship" oneway="0"/>
    <type id="highway.trunk" priority="13" numLanes="2" speed="27.78" disallow="pedestrian bicycle tram rail_urban rail rail_electric rail_fast ship" oneway="0"/>
    <type id="highway.trunk_link" priority="8" numLanes="1" speed="22.22" disallow="pedestrian bicycle tram rail_urban rail rail_electric rail_fast ship" oneway="0"/>
    <type id="highway.unclassified" priority="4" numLanes="1" speed="13.89" disallow="tram rail_urban rail rail_electric rail_fast ship" oneway="0"/>
    <type id="highway.unsurfaced" priority="1" numLanes="1" speed="8.33" disallow="tram rail_urban rail rail_electric rail_fast ship" oneway="0"/>
    <type id="railway.highspeed" priority="21" numLanes="1" speed="69.44" allow="rail_fast" oneway="1"/>
    <type id="railway.light_rail" priority="19" numLanes="1" speed="27.78" allow="rail_urban" oneway="1"/>
    <type id="railway.preserved" priority="16" numLanes="1" speed="27.78" allow="rail" oneway="1"/>
    <type id="railway.rail" priority="20" numLanes="1" speed="44.44" allow="rail" oneway="1"/>
    <type id="railway.subway" priority="18" numLanes="1" speed="27.78" allow="rail_urban" oneway="1"/>
    <type id="railway.tram" priority="17" numLanes="1" speed="13.89" allow="tram" oneway="1"/>

    <edge id=":1051308709_0" function="internal">
        <lane id=":1051308709_0_0" index="0" disallow="tram rail_urban rail rail_electric rail_fast ship" speed="13.89" length="0.29" shape="1015.29,588.52 1015.26,588.83"/>
        <lane id=":1051308709_0_1" index="1" disallow="tram rail_urban rail rail_electric rail_fast ship" speed="13.89" length="0.29" shape="1012.11,588.23 1012.08,588.50"/>
    </edge>
    <edge id=":10732913395_0" function="internal">
        <lane id=":10732913395_0_0" index="0" disallow="tram rail_urban rail rail_electric rail_fast ship" speed="13.89" length="0.10" shape="955.01,997.21 955.01,997.21"/>
    </edge>
    <edge id=":10732913395_1" function="internal">
        <lane id=":10732913395_1_0" index="0" disallow="tram rail_urban rail rail_electric rail_fast ship" speed="13.89" length="0.10" shape="957.74,995.53 957.74,995.53"/>
    </edge>
    <edge id=":10735183934_0" function="internal">
        <lane id=":10735183934_0_0" index="0" disallow="tram rail_urban rail rail_electric rail_fast ship" speed="13.89" length="0.10" shape="730.96,453.23 730.96,453.23"/>
    </edge>
    <edge id=":10735183934_1" function="internal">
        <lane id=":10735183934_1_0" index="0" disallow="tram rail_urban rail rail_electric rail_fast ship" speed="13.89" length="0.10" shape="733.50,447.35 733.50,447.35"/>
        <lane id=":10735183934_1_1" index="1" disallow="tram rail_urban rail rail_electric rail_fast ship" speed="13.89" length="0.10" shape="732.23,450.29 732.23,450.29"/>
    </edge>
    <edge id=":11630777418_0" function="internal">
        <lane id=":11630777418_0_0" index="0" disallow="tram rail_urban rail rail_electric rail_fast ship" speed="13.89" length="0.30" shape="334.25,794.65 334.03,794.86"/>
    </edge>
    <edge id=":11630777418_1" function="internal">
        <lane id=":11630777418_1_0" index="0" disallow="tram rail_urban rail rail_electric rail_fast ship" speed="13.89" length="0.30" shape="331.80,792.57 332.02,792.36"/>
    </edge>
    <edge id=":11630777419_0" function="internal">
        <lane id=":11630777419_0_0" index="0" disallow="tram rail_urban rail rail_electric rail_fast ship" speed="13.89" length="0.10" shape="355.96,792.99 355.96,792.99"/>
    </edge>
    <edge id=":11630777419_1" function="internal">
        <lane id=":11630777419_1_0" index="0" disallow="tram rail_urban rail rail_electric rail_fast ship" speed="13.89" length="0.10" shape="358.12,790.63 358.12,790.63"/>
    </edge>
    <edge id=":11630777420_0" function="internal">
        <lane id=":11630777420_0_0" index="0" disallow="tram rail_urban rail rail_electric rail_fast ship" speed="13.89" length="0.30" shape="359.49,763.76 359.32,764.01"/>
    </edge>
    <edge id=":11630777420_1" function="internal">
        <lane id=":11630777420_1_0" index="0" disallow="tram rail_urban rail rail_electric rail_fast ship" speed="13.89" length="0.30" shape="356.67,762.22 356.84,761.97"/>
    </edge>
    <edge id=":11630777421_0" function="internal">
        <lane id=":11630777421_0_0" index="0" disallow="tram rail_urban rail rail_electric rail_fast ship" speed="5.56" length="0.30" shape="427.97,575.32 428.04,575.61"/>
    </edge>
    <edge id=":1261109188_0" function="internal">
        <lane id=":1261109188_0_0" index="0" disallow="tram rail_urban rail rail_electric rail_fast ship" speed="13.89" length="0.35" shape="909.27,971.38 909.21,971.78"/>
        <lane id=":1261109188_0_1" index="1" disallow="tram rail_urban rail rail_electric rail_fast ship" speed="13.89" length="0.35" shape="906.10,970.97 906.05,971.27"/>
    </edge>
    <edge id=":1261109188_2" function="internal">
        <lane id=":1261109188_2_0" index="0" disallow="tram rail_urban rail rail_electric rail_fast ship" speed="13.89" length="0.17" shape="899.73,970.25 899.75,970.13"/>
        <lane id=":1261109188_2_1" index="1" disallow="tram rail_urban rail rail_electric rail_fast ship" speed="13.89" length="0.17" shape="902.89,970.76 902.92,970.55"/>
    </edge>
    <edge id=":1261109191_0" function="internal">
        <lane id=":1261109191_0_0" index="0" disallow="tram rail_urban rail rail_electric rail_fast ship" speed="13.89" length="0.29" shape="937.15,968.06 936.99,967.82"/>
    </edge>
    <edge id=":1261109191_1" function="internal">
        <lane id=":1261109191_1_0" index="0" disallow="tram rail_urban rail rail_electric rail_fast ship" speed="13.89" length="0.31" shape="939.71,966.13 939.87,966.39"/>
    </edge>
    <edge id=":1264133552_0" function="internal">
        <lane id=":1264133552_0_0" index="0" disallow="tram rail_urban rail rail_electric rail_fast ship" speed="8.33" length="9.68" shape="269.59,627.11 262.26,633.43"/>
    </edge>
    <edge id=":1264133552_1" function="internal">
        <lane id=":1264133552_1_0" index="0" disallow="tram rail_urban rail rail_electric rail_fast ship" speed="5.56" length="8.16" shape="269.59,627.11 267.50,628.91 265.63,629.84 263.97,629.88 262.54,629.04"/>
    </edge>
    <edge id=":1264133552_2" function="internal">
        <lane id=":1264133552_2_0" index="0" disallow="tram rail_urban rail rail_electric rail_fast ship" speed="5.56" length="7.79" shape="264.76,626.74 265.35,627.87 265.13,629.37 264.10,631.22 262.26,633.43"/>
    </edge>
    <edge id=":1264133552_3" function="internal">
        <lane id=":1264133552_3_0" index="0" disallow="tram rail_urban rail rail_electric rail_fast ship" speed="2.78" length="4.67" shape="264.76,626.74 265.07,628.15 264.80,629.00 263.96,629.30 262.54,629.04"/>
    </edge>
    <edge id=":12864344030_0" function="internal">
        <lane id=":12864344030_0_0" index="0" disallow="tram rail_urban rail rail_electric rail_fast ship" speed="13.89" length="8.40" shape="232.72,970.81 231.09,968.90 229.38,968.09 227.67,967.28 226.04,965.37"/>
        <lane id=":12864344030_0_1" index="1" disallow="tram rail_urban rail rail_electric rail_fast ship" speed="13.89" length="8.40" shape="232.72,970.81 228.84,963.82"/>
    </edge>
    <edge id=":12864344030_2" function="internal">
        <lane id=":12864344030_2_0" index="0" disallow="tram rail_urban rail rail_electric rail_fast ship" speed="13.89" length="8.00" shape="231.64,962.27 235.52,969.26"/>
    </edge>
    <edge id=":1307128385_0" function="internal">
        <lane id=":1307128385_0_0" index="0" disallow="tram rail_urban rail rail_electric rail_fast ship" speed="13.89" length="0.35" shape="997.60,661.33 997.46,661.71"/>
        <lane id=":1307128385_0_1" index="1" disallow="tram rail_urban rail rail_electric rail_fast ship" speed="13.89" length="0.35" shape="994.59,660.24 994.48,660.52"/>
    </edge>
    <edge id=":1307128385_2" function="internal">
        <lane id=":1307128385_2_0" index="0" disallow="tram rail_urban rail rail_electric rail_fast ship" speed="13.89" length="0.16" shape="988.54,658.15 988.58,658.04"/>
        <lane id=":1307128385_2_1" index="1" disallow="tram rail_urban rail rail_electric rail_fast ship" speed="13.89" length="0.16" shape="991.51,659.33 991.59,659.14"/>
    </edge>
    <edge id=":1307128386_0" function="internal">
        <lane id=":1307128386_0_0" index="0" disallow="tram rail_urban rail rail_electric rail_fast ship" speed="13.89" length="0.10" shape="970.28,674.28 970.21,674.27"/>
    </edge>
    <edge id=":1307128386_1" function="internal">
        <lane id=":1307128386_1_0" index="0" disallow="tram rail_urban rail rail_electric rail_fast ship" speed="13.89" length="0.10" shape="970.32,671.08 970.25,671.08"/>
    </edge>
    <edge id=":1324146641_0" function="internal">
        <lane id=":1324146641_0_0" index="0" disallow="tram rail_urban rail rail_electric rail_fast ship" speed="13.89" length="0.23" shape="999.77,1070.22 999.65,1070.02"/>
    </edge>
    <edge id=":1324146641_1" function="internal">
        <lane id=":1324146641_1_0" index="0" disallow="tram rail_urban rail rail_electric rail_fast ship" speed="13.89" length="0.31" shape="1002.38,1068.35 1002.54,1068.61"/>
    </edge>
    <edge id=":1333636160_0" function="internal">
        <lane id=":1333636160_0_0" index="0" disallow="tram rail_urban rail rail_electric rail_fast ship" speed="13.89" length="0.65" shape="858.91,521.90 858.91,522.09 858.90,522.22 858.89,522.35 858.86,522.54"/>
    </edge>
    <edge id=":1333636160_1" function="internal">
        <lane id=":1333636160_1_0" index="0" disallow="tram rail_urban rail rail_electric rail_fast ship" speed="13.89" length="0.22" shape="855.70,522.07 855.71,522.01 855.71,521.96 855.71,521.92 855.71,521.86"/>
    </edge>
    <edge id=":1438846522_0" function="internal">
        <lane id=":1438846522_0_0" index="0" disallow="tram rail_urban rail rail_electric rail_fast ship" speed="6.94" length="8.29" shape="426.89,599.90 426.45,602.29 426.54,604.01 426.62,605.72 426.12,608.09"/>
    </edge>
    <edge id=":1438846522_1" function="internal">
        <lane id=":1438846522_1_0" index="0" disallow="tram rail_urban rail rail_electric rail_fast ship" speed="5.29" length="4.23" shape="426.89,599.90 425.56,603.49 425.29,603.78"/>
    </edge>
    <edge id=":1438846522_4" function="internal">
        <lane id=":1438846522_4_0" index="0" disallow="tram rail_urban rail rail_electric rail_fast ship" speed="5.29" length="6.51" shape="425.29,603.78 424.51,604.62 423.73,603.28 423.22,599.49"/>
    </edge>
    <edge id=":1438846522_2" function="internal">
        <lane id=":1438846522_2_0" index="0" disallow="tram rail_urban rail rail_electric rail_fast ship" speed="6.94" length="7.70" shape="423.08,607.09 423.65,604.91 423.70,603.36 423.48,601.77 423.22,599.49"/>
    </edge>
    <edge id=":1438846522_3" function="internal">
        <lane id=":1438846522_3_0" index="0" disallow="tram rail_urban rail rail_electric rail_fast ship" speed="3.65" length="2.13" shape="423.08,607.09 424.22,606.20 424.90,606.10"/>
    </edge>
    <edge id=":1438846522_5" function="internal">
        <lane id=":1438846522_5_0" index="0" disallow="tram rail_urban rail rail_electric rail_fast ship" speed="3.65" length="2.54" shape="424.90,606.10 425.10,606.07 425.74,606.70 426.12,608.09"/>
    </edge>
    <edge id=":1488941791_0" function="internal">
        <lane id=":1488941791_0_0" index="0" disallow="tram rail_urban rail rail_electric rail_fast ship" speed="13.89" length="0.30" shape="776.40,471.73 776.12,471.63"/>
    </edge>
    <edge id=":1488941791_1" function="internal">
        <lane id=":1488941791_1_0" index="0" disallow="tram rail_urban rail rail_electric rail_fast ship" speed="13.89" length="0.30" shape="778.37,465.64 778.64,465.74"/>
        <lane id=":1488941791_1_1" index="1" disallow="tram rail_urban rail rail_electric rail_fast ship" speed="13.89" length="0.30" shape="777.24,468.63 777.52,468.74"/>
    </edge>
    <edge id=":1507762115_0" function="internal">
        <lane id=":1507762115_0_0" index="0" disallow="tram rail_urban rail rail_electric rail_fast ship" speed="13.89" length="0.65" shape="912.14,949.45 912.07,950.21"/>
        <lane id=":1507762115_0_1" index="1" disallow="tram rail_urban rail rail_electric rail_fast ship" speed="13.89" length="0.65" shape="908.95,949.25 908.90,949.79"/>
    </edge>
    <edge id=":1507762115_2" function="internal">
        <lane id=":1507762115_2_0" index="0" disallow="tram rail_urban rail rail_electric rail_fast ship" speed="13.89" length="0.22" shape="902.55,948.96 902.56,948.85"/>
        <lane id=":1507762115_2_1" index="1" disallow="tram rail_urban rail rail_electric rail_fast ship" speed="13.89" length="0.22" shape="905.72,949.38 905.75,949.05"/>
    </edge>
    <edge id=":1507762172_0" function="internal">
        <lane id=":1507762172_0_0" index="0" disallow="tram rail_urban rail rail_electric rail_fast ship" speed="3.65" length="4.67" shape="878.18,1148.79 877.21,1149.86 876.36,1150.14 875.63,1149.63 875.01,1148.32"/>
    </edge>
    <edge id=":1540767775_0" function="internal">
        <lane id=":1540767775_0_0" index="0" disallow="tram rail_urban rail rail_electric rail_fast ship" speed="13.89" length="7.28" shape="616.42,1067.05 614.70,1065.50 613.29,1064.66 611.96,1063.77 610.47,1062.03"/>
        <lane id=":1540767775_0_1" index="1" disallow="tram rail_urban rail rail_electric rail_fast ship" speed="13.89" length="7.28" shape="618.80,1064.92 617.17,1063.45 615.81,1062.69 614.53,1061.86 613.11,1060.23"/>
        <lane id=":1540767775_0_2" index="2" disallow="tram rail_urban rail rail_electric rail_fast ship" speed="13.89" length="7.28" shape="621.19,1062.78 619.64,1061.41 618.34,1060.71 617.11,1059.96 615.76,1058.43"/>
        <lane id=":1540767775_0_3" index="3" disallow="tram rail_urban rail rail_electric rail_fast ship" speed="13.89" length="7.28" shape="621.19,1062.78 620.07,1061.15 619.66,1059.81 619.33,1058.42 618.41,1056.63"/>
    </edge>
    <edge id=":1834001713_0" function="internal">
        <lane id=":1834001713_0_0" index="0" disallow="tram rail_urban rail rail_electric rail_fast ship" speed="13.89" length="0.30" shape="821.38,1068.00 821.08,1067.95"/>
    </edge>
    <edge id=":1834001713_1" function="internal">
        <lane id=":1834001713_1_0" index="0" disallow="tram rail_urban rail rail_electric rail_fast ship" speed="13.89" length="0.30" shape="821.58,1064.79 821.87,1064.84"/>
    </edge>
    <edge id=":1834026613_0" function="internal">
        <lane id=":1834026613_0_0" index="0" disallow="tram rail_urban rail rail_electric rail_fast ship" speed="13.89" length="0.10" shape="924.04,837.44 924.04,837.44"/>
        <lane id=":1834026613_0_1" index="1" disallow="tram rail_urban rail rail_electric rail_fast ship" speed="13.89" length="0.10" shape="920.91,836.80 920.91,836.80"/>
    </edge>
    <edge id=":1834026613_2" function="internal">
        <lane id=":1834026613_2_0" index="0" disallow="tram rail_urban rail rail_electric rail_fast ship" speed="13.89" length="0.10" shape="914.63,835.52 914.64,835.52"/>
        <lane id=":1834026613_2_1" index="1" disallow="tram rail_urban rail rail_electric rail_fast ship" speed="13.89" length="0.10" shape="917.77,836.16 917.77,836.16"/>
    </edge>
    <edge id=":1834026637_0" function="internal">
        <lane id=":1834026637_0_0" index="0" disallow="tram rail_urban rail rail_electric rail_fast ship" speed="13.89" length="0.37" shape="913.67,897.52 913.66,897.58 913.66,897.62 913.66,897.65 913.66,897.71"/>
        <lane id=":1834026637_0_1" index="1" disallow="tram rail_urban rail rail_electric rail_fast ship" speed="13.89" length="0.37" shape="910.49,897.14 910.47,897.30 910.46,897.42 910.46,897.53 910.46,897.69"/>
    </edge>
    <edge id=":1834026637_2" function="internal">
        <lane id=":1834026637_2_0" index="0" disallow="tram rail_urban rail rail_electric rail_fast ship" speed="13.89" length="1.11" shape="904.06,897.66 904.06,897.28 904.07,897.01 904.09,896.75 904.14,896.37"/>
        <lane id=":1834026637_2_1" index="1" disallow="tram rail_urban rail rail_electric rail_fast ship" speed="13.89" length="1.11" shape="907.26,897.68 907.26,897.40 907.27,897.22 907.28,897.03 907.31,896.75"/>
    </edge>
    <edge id=":1834026644_0" function="internal">
        <lane id=":1834026644_0_0" index="0" disallow="tram rail_urban rail rail_electric rail_fast ship" speed="13.89" length="0.23" shape="891.30,911.22 891.35,911.27 891.38,911.31 891.41,911.34 891.46,911.39"/>
    </edge>
    <edge id=":1834036319_0" function="internal">
        <lane id=":1834036319_0_0" index="0" disallow="tram rail_urban rail rail_electric rail_fast ship" speed="13.89" length="0.31" shape="1004.62,673.94 1004.31,673.95"/>
    </edge>
    <edge id=":1834036319_1" function="internal">
        <lane id=":1834036319_1_0" index="0" disallow="tram rail_urban rail rail_electric rail_fast ship" speed="13.89" length="0.29" shape="1004.29,670.75 1004.58,670.74"/>
    </edge>
    <edge id=":1834036320_0" function="internal">
        <lane id=":1834036320_0_0" index="0" disallow="tram rail_urban rail rail_electric rail_fast ship" speed="13.89" length="0.31" shape="982.20,693.66 982.06,693.94"/>
        <lane id=":1834036320_0_1" index="1" disallow="tram rail_urban rail rail_electric rail_fast ship" speed="13.89" length="0.31" shape="979.38,692.16 979.23,692.43"/>
    </edge>
    <edge id=":1834036320_2" function="internal">
        <lane id=":1834036320_2_0" index="0" disallow="tram rail_urban rail rail_electric rail_fast ship" speed="13.89" length="0.29" shape="973.59,689.42 973.72,689.17"/>
        <lane id=":1834036320_2_1" index="1" disallow="tram rail_urban rail rail_electric rail_fast ship" speed="13.89" length="0.29" shape="976.41,690.92 976.55,690.66"/>
    </edge>
    <edge id=":2117568679_0" function="internal">
        <lane id=":2117568679_0_0" index="0" disallow="tram rail_urban rail rail_electric rail_fast ship" speed="13.89" length="0.73" shape="222.07,911.99 221.86,912.17 221.72,912.29 221.57,912.40 221.35,912.55"/>
        <lane id=":2117568679_0_1" index="1" disallow="tram rail_urban rail rail_electric rail_fast ship" speed="13.89" length="0.73" shape="219.95,909.59 219.82,909.70 219.74,909.77 219.65,909.84 219.52,909.93"/>
    </edge>
    <edge id=":2117568679_2" function="internal">
        <lane id=":2117568679_2_0" index="0" disallow="tram rail_urban rail rail_electric rail_fast ship" speed="13.89" length="0.18" shape="217.68,907.30 217.73,907.27 217.76,907.25 217.79,907.23 217.83,907.19"/>
    </edge>
    <edge id=":2118006980_0" function="internal">
        <lane id=":2118006980_0_0" index="0" disallow="tram rail_urban rail rail_electric rail_fast ship" speed="13.89" length="16.67" shape="1159.82,689.30 1156.09,688.12 1151.79,687.79 1147.39,687.72 1143.36,687.36"/>
    </edge>
    <edge id=":2118006980_1" function="internal">
        <lane id=":2118006980_1_0" index="0" disallow="tram rail_urban rail rail_electric rail_fast ship" speed="11.11" length="18.13" shape="1159.82,689.30 1156.18,687.13 1152.18,684.44 1148.28,681.60 1144.96,678.95"/>
    </edge>
    <edge id=":2118006980_2" function="internal">
        <lane id=":2118006980_2_0" index="0" disallow="tram rail_urban rail rail_electric rail_fast ship" speed="3.65" length="2.34" shape="1159.82,689.30 1159.15,688.03 1159.18,687.13"/>
    </edge>
    <edge id=":2118006980_9" function="internal">
        <lane id=":2118006980_9_0" index="0" disallow="tram rail_urban rail rail_electric rail_fast ship" speed="3.65" length="2.34" shape="1159.18,687.13 1159.92,686.62 1161.35,686.49"/>
    </edge>
    <edge id=":2118006980_3" function="internal">
        <lane id=":2118006980_3_0" index="0" disallow="tram rail_urban rail rail_electric rail_fast ship" speed="11.11" length="17.70" shape="1146.86,676.36 1150.12,678.98 1153.89,681.75 1157.77,684.36 1161.35,686.49"/>
    </edge>
    <edge id=":2118006980_4" function="internal">
        <lane id=":2118006980_4_0" index="0" disallow="tram rail_urban rail rail_electric rail_fast ship" speed="6.39" length="4.69" shape="1146.86,676.36 1149.26,680.00 1149.26,680.34"/>
    </edge>
    <edge id=":2118006980_5" function="internal">
        <lane id=":2118006980_5_0" index="0" disallow="tram rail_urban rail rail_electric rail_fast ship" speed="3.65" length="2.34" shape="1146.86,676.36 1147.36,677.72 1147.21,678.61"/>
    </edge>
    <edge id=":2118006980_10" function="internal">
        <lane id=":2118006980_10_0" index="0" disallow="tram rail_urban rail rail_electric rail_fast ship" speed="6.39" length="10.99" shape="1149.26,680.34 1149.30,683.87 1147.25,686.73 1143.36,687.36"/>
    </edge>
    <edge id=":2118006980_11" function="internal">
        <lane id=":2118006980_11_0" index="0" disallow="tram rail_urban rail rail_electric rail_fast ship" speed="3.65" length="2.34" shape="1147.21,678.61 1146.41,679.01 1144.96,678.95"/>
    </edge>
    <edge id=":2118006980_6" function="internal">
        <lane id=":2118006980_6_0" index="0" disallow="tram rail_urban rail rail_electric rail_fast ship" speed="5.65" length="11.82" shape="1143.22,684.07 1147.09,684.47 1148.67,683.75 1147.96,681.91 1144.96,678.95"/>
    </edge>
    <edge id=":2118006980_7" function="internal">
        <lane id=":2118006980_7_0" index="0" disallow="tram rail_urban rail rail_electric rail_fast ship" speed="13.89" length="18.38" shape="1143.22,684.07 1147.50,684.51 1152.48,684.74 1157.36,685.24 1161.35,686.49"/>
    </edge>
    <edge id=":2118006980_8" function="internal">
        <lane id=":2118006980_8_0" index="0" disallow="tram rail_urban rail rail_electric rail_fast ship" speed="3.68" length="4.80" shape="1143.22,684.07 1144.48,684.84 1144.93,685.64 1144.56,686.48 1143.36,687.36"/>
    </edge>
    <edge id=":2121404533_0" function="internal">
        <lane id=":2121404533_0_0" index="0" disallow="tram rail_urban rail rail_electric rail_fast ship" speed="13.89" length="0.35" shape="509.32,366.22 509.19,366.16 509.09,366.11 509.00,366.06 508.87,365.97"/>
        <lane id=":2121404533_0_1" index="1" disallow="tram rail_urban rail rail_electric rail_fast ship" speed="13.89" length="0.35" shape="510.70,363.34 510.66,363.31 510.63,363.30 510.59,363.28 510.55,363.25"/>
    </edge>
    <edge id=":2267417101_0" function="internal">
        <lane id=":2267417101_0_0" index="0" disallow="tram rail_urban rail rail_electric rail_fast ship" speed="13.89" length="0.24" shape="977.67,770.79 977.44,770.69"/>
    </edge>
    <edge id=":2267417101_1" function="internal">
        <lane id=":2267417101_1_0" index="0" disallow="tram rail_urban rail rail_electric rail_fast ship" speed="13.89" length="0.31" shape="978.63,767.72 978.92,767.84"/>
    </edge>
    <edge id=":2285850402_0" function="internal">
        <lane id=":2285850402_0_0" index="0" disallow="tram rail_urban rail rail_electric rail_fast ship" speed="13.89" length="0.10" shape="1057.96,673.36 1058.04,673.36"/>
    </edge>
    <edge id=":2285850402_1" function="internal">
        <lane id=":2285850402_1_0" index="0" disallow="tram rail_urban rail rail_electric rail_fast ship" speed="13.89" length="0.10" shape="1058.00,670.16 1058.08,670.16"/>
    </edge>
    <edge id=":2358496785_0" function="internal">
        <lane id=":2358496785_0_0" index="0" disallow="tram rail_urban rail rail_electric rail_fast ship" speed="13.89" length="0.29" shape="336.33,792.63 336.13,792.83"/>
    </edge>
    <edge id=":2358496785_1" function="internal">
        <lane id=":2358496785_1_0" index="0" disallow="tram rail_urban rail rail_electric rail_fast ship" speed="13.89" length="0.31" shape="333.90,790.53 334.12,790.32"/>
    </edge>
    <edge id=":2362441541_0" function="internal">
        <lane id=":2362441541_0_0" index="0" disallow="tram rail_urban rail rail_electric rail_fast ship" speed="13.89" length="0.30" shape="357.73,766.36 357.56,766.61"/>
    </edge>
    <edge id=":2362441541_1" function="internal">
        <lane id=":2362441541_1_0" index="0" disallow="tram rail_urban rail rail_electric rail_fast ship" speed="13.89" length="0.30" shape="354.91,764.82 355.08,764.57"/>
    </edge>
    <edge id=":2362441548_0" function="internal">
        <lane id=":2362441548_0_0" index="0" disallow="tram rail_urban rail rail_electric rail_fast ship" speed="13.89" length="0.26" shape="353.13,790.40 352.94,790.22"/>
    </edge>
    <edge id=":2362441548_1" function="internal">
        <lane id=":2362441548_1_0" index="0" disallow="tram rail_urban rail rail_electric rail_fast ship" speed="13.89" length="0.31" shape="355.06,787.83 355.29,788.04"/>
    </edge>
    <edge id=":26288865_0" function="internal">
        <lane id=":26288865_0_0" index="0" disallow="tram rail_urban rail rail_electric rail_fast ship" speed="13.89" length="8.20" shape="1033.11,310.03 1033.10,307.63 1032.71,305.99 1032.31,304.35 1032.28,301.95"/>
        <lane id=":26288865_0_1" index="1" disallow="tram rail_urban rail rail_electric rail_fast ship" speed="13.89" length="8.20" shape="1033.11,310.03 1033.60,307.68 1034.30,306.14 1035.00,304.60 1035.47,302.24"/>
        <lane id=":26288865_0_2" index="2" disallow="tram rail_urban rail rail_electric rail_fast ship" speed="13.89" length="8.20" shape="1036.29,310.36 1036.78,307.99 1037.49,306.45 1038.19,304.90 1038.66,302.53"/>
    </edge>
    <edge id=":26288866_0" function="internal">
        <lane id=":26288866_0_0" index="0" disallow="tram rail_urban rail rail_electric rail_fast ship" speed="13.89" length="0.28" shape="1043.65,306.97 1043.62,307.23"/>