<?xml version="1.0" encoding="UTF-8"?>

<!-- generated on 12/15/25 01:09:22 by Eclipse SUMO polyconvert Version 1.5.0
<configuration xmlns:xsi="http://www.w3.org/2001/XMLSchema-instance" xsi:noNamespaceSchemaLocation="http://sumo.dlr.de/xsd/polyconvertConfiguration.xsd">

    <input>
        <net-file value="koesching.net.xml"/>
        <osm-files value="koesching_raw.osm"/>
    </input>

    <output>
        <output-file value="koesching.poly.xml"/>
    </output>

    <processing>
        <poi-layer-offset value="5"/>
    </processing>

</configuration>
-->

<additional xmlns:xsi="http://www.w3.org/2001/XMLSchema-instance" xsi:noNamespaceSchemaLocation="http://sumo.dlr.de/xsd/additional_file.xsd">
    <location netOffset="-678264.23,-5403725.30" convBoundary="-0.00,0.00,1550.93,1301.09" origBoundary="11.426062,48.760683,11.447237,48.772554" projParameter="+proj=utm +zone=32 +ellps=WGS84 +datum=WGS84 +units=m +no_defs"/>

    <poly id="101238052" type="building" color="255,230,230" fill="1" layer="-1.00" shape="255.514382,371.350118 267.233744,377.732114 292.476815,391.343716 297.742799,381.676302 260.780317,361.682671 255.514382,371.350118"/>
    <poly id="1049127185" type="building" color="255,230,230" fill="1" layer="-1.00" shape="588.175523,651.125379 602.313255,609.898868 617.294027,615.006274 603.156192,656.232750 588.175523,651.125379"/>
    <poly id="110778819" type="building" color="255,230,230" fill="1" layer="-1.00" shape="256.658757,499.392208 255.603199,502.507211 258.914276,504.081498 254.977420,513.591077 247.625117,510.274576 246.809499,512.785301 248.228819,513.253375 246.441511,518.325476 241.915239,516.801436 244.274820,508.776927 248.035130,495.578975 256.658757,499.392208"/>
    <poly id="110778827" type="building" color="255,230,230" fill="1" layer="-1.00" shape="252.290159,520.359006 254.057613,515.909333 254.977420,513.591077 247.625117,510.274576 246.809499,512.785301 248.228819,513.253375 246.441511,518.325476 252.290159,520.359006"/>
    <poly id="110778842" type="building" color="255,230,230" fill="1" layer="-1.00" shape="239.762048,524.120461 249.475412,527.434399 252.290159,520.359006 246.441511,518.325476 241.915239,516.801436 239.762048,524.120461"/>
    <poly id="110778845" type="building" color="255,230,230" fill="1" layer="-1.00" shape="244.008193,452.581707 232.771129,449.530708 234.876578,440.941785 237.227642,431.570745 249.285720,435.170870 244.714919,450.256650 244.008193,452.581707"/>
    <poly id="110778881" type="building" color="255,230,230" fill="1" layer="-1.00" shape="235.768881,506.347102 236.679169,500.868732 239.380408,489.973466 248.713569,492.296174 248.035130,495.578975 244.274820,508.776927 235.768881,506.347102"/>
    <poly id="110778931" type="building" color="255,230,230" fill="1" layer="-1.00" shape="312.489527,432.169812 310.421561,431.514131 305.789880,430.064561 307.327135,425.685438 308.801455,421.204172 313.446065,422.709787 315.602563,423.357169 314.001906,427.878906 312.489527,432.169812"/>
    <poly id="110778931#1" type="historic" color="128,255,128" fill="1" layer="-1.00" shape="312.489527,432.169812 310.421561,431.514131 305.789880,430.064561 307.327135,425.685438 308.801455,421.204172 313.446065,422.709787 315.602563,423.357169 314.001906,427.878906 312.489527,432.169812"/>
    <poly id="110778931#2" type="man_made" color="255,230,230" fill="1" layer="-1.00" shape="312.489527,432.169812 310.421561,431.514131 305.789880,430.064561 307.327135,425.685438 308.801455,421.204172 313.446065,422.709787 315.602563,423.357169 314.001906,427.878906 312.489527,432.169812"/>
    <poly id="110781556" type="building" color="255,230,230" fill="1" layer="-1.00" shape="299.263656,521.168092 303.655677,523.210820 299.867074,533.604065 297.715584,532.801080 294.852183,531.719478 299.263656,521.168092"/>
    <poly id="110781557" type="building" color="255,230,230" fill="1" layer="-1.00" shape="290.327458,580.852529 284.850775,578.919834 285.379187,575.498735 288.302005,575.870160 292.653243,576.654333 290.327458,580.852529"/>
    <poly id="110781558" type="building" color="255,230,230" fill="1" layer="-1.00" shape="271.341935,621.947257 268.021431,626.202728 266.117006,626.186464 259.583465,620.726477 264.034059,614.938282 264.878107,613.841480 268.052910,616.457280 266.834191,618.231944 271.341935,621.947257"/>
    <poly id="110781559" type="building" color="255,230,230" fill="1" layer="-1.00" shape="305.850125,536.265003 304.722691,538.865904 301.076385,547.105227 308.444219,549.932751 311.294303,542.213198 312.420879,539.178353 310.430079,538.180223 305.850125,536.265003"/>
    <poly id="110781560" type="building" color="255,230,230" fill="1" layer="-1.00" shape="226.460301,562.047712 242.987450,570.107330 237.740167,580.810105 245.996541,584.834134 255.162169,566.123216 243.835071,560.599319 230.680368,554.494215 227.915697,559.078972 226.460301,562.047712"/>
    <poly id="110781562" type="building" color="255,230,230" fill="1" layer="-1.00" shape="251.881201,615.473982 243.958949,609.969707 248.066171,603.647619 253.846283,607.826304 256.896645,602.816757 259.376879,603.919495 257.411658,606.960968 251.881201,615.473982"/>
    <poly id="110781566" type="building" color="255,230,230" fill="1" layer="-1.00" shape="251.852597,557.817697 256.299701,547.990614 269.089544,553.082788 264.692135,563.656895 251.852597,557.817697"/>
    <poly id="110781567" type="building" color="255,230,230" fill="1" layer="-1.00" shape="281.972478,592.134785 276.073121,599.990693 284.595477,606.971683 290.805565,599.058943 281.972478,592.134785"/>
    <poly id="110781568" type="building" color="255,230,230" fill="1" layer="-1.00" shape="249.895493,595.183403 244.216060,591.998157 256.168214,570.783767 261.847663,573.969025 249.895493,595.183403"/>
    <poly id="110781569" type="building" color="255,230,230" fill="1" layer="-1.00" shape="288.392718,584.551405 286.128910,587.038162 281.972478,592.134785 290.805565,599.058943 297.218007,591.720098 288.392718,584.551405"/>
    <poly id="110781570" type="building" color="255,230,230" fill="1" layer="-1.00" shape="292.653243,576.654333 290.327458,580.852529 299.911730,587.055226 306.513618,577.007670 309.580113,569.651058 300.128834,565.733439 298.974755,565.251564 295.574084,572.708777 296.436285,573.348228 294.751560,576.587785 293.222959,575.626662 292.653243,576.654333"/>
    <poly id="110781572" type="building" color="255,230,230" fill="1" layer="-1.00" shape="252.290159,520.359006 255.070366,521.282166 256.750614,517.029982 254.057613,515.909333 252.290159,520.359006"/>
    <poly id="110781575" type="building" color="255,230,230" fill="1" layer="-1.00" shape="274.414307,573.146141 269.056237,571.183868 265.294168,580.287352 272.346334,584.017096 277.720460,588.472129 281.972478,592.134785 286.128910,587.038162 276.961303,579.302259 272.805352,576.777534 274.414307,573.146141"/>
    <poly id="110781576" type="building" color="255,230,230" fill="1" layer="-1.00" shape="290.933422,542.965282 272.292013,536.162063 276.445763,525.157394 283.312933,528.002285 294.438182,532.707614 290.933422,542.965282"/>
    <poly id="110781578" type="building" color="255,230,230" fill="1" layer="-1.00" shape="284.363416,559.389122 298.974755,565.251564 295.574084,572.708777 294.971684,572.455904 293.222959,575.626662 292.653243,576.654333 288.302005,575.870160 290.463355,570.832260 282.746252,567.426182 282.006733,568.704336 277.858885,566.847431 279.173031,563.696179 282.076956,564.890328 284.363416,559.389122"/>
    <poly id="110781581" type="building" color="255,230,230" fill="1" layer="-1.00" shape="276.073121,599.990693 268.808763,608.904533 277.154264,615.434825 284.595477,606.971683 276.073121,599.990693"/>
    <poly id="110781584" type="building" color="255,230,230" fill="1" layer="-1.00" shape="287.781544,516.351231 299.263656,521.168092 294.852183,531.719478 294.438182,532.707614 283.312933,528.002285 287.781544,516.351231"/>
    <poly id="110781585" type="building" color="255,230,230" fill="1" layer="-1.00" shape="269.089544,553.082788 284.363416,559.389122 282.076956,564.890328 279.173031,563.696179 277.858885,566.847431 271.884522,564.375942 269.056237,571.183868 265.731472,569.809406 267.133882,566.427320 264.070435,565.161332 264.692135,563.656895 269.089544,553.082788"/>
    <poly id="110781587" type="building" color="255,230,230" fill="1" layer="-1.00" shape="310.430079,538.180223 311.841036,534.531393 321.538989,538.557037 319.784816,542.128153 324.629173,544.285473 329.774647,534.013436 310.014329,526.317667 305.850125,536.265003 310.430079,538.180223"/>
    <poly id="110781599" type="building" color="255,230,230" fill="1" layer="-1.00" shape="268.808763,608.904533 267.366069,610.783311 266.722893,613.421923 269.112875,615.278359 268.052910,616.457280 266.834191,618.231944 271.341935,621.947257 277.154264,615.434825 268.808763,608.904533"/>
    <poly id="110781604" type="building" color="255,230,230" fill="1" layer="-1.00" shape="243.958949,609.969707 237.432674,605.433445 241.250203,599.892062 243.564042,596.527923 247.195165,598.212552 244.826799,601.441436 248.066171,603.647619 243.958949,609.969707"/>
    <poly id="110781607" type="building" color="255,230,230" fill="1" layer="-1.00" shape="258.914276,504.081498 287.781544,516.351231 283.312933,528.002285 276.445763,525.157394 256.750614,517.029982 254.057613,515.909333 254.977420,513.591077 258.914276,504.081498"/>
    <poly id="110781609" type="building" color="255,230,230" fill="1" layer="-1.00" shape="246.485228,555.454611 250.293436,545.596015 256.299701,547.990614 251.852597,557.817697 246.485228,555.454611"/>
    <poly id="110781614" type="building" color="255,230,230" fill="1" layer="-1.00" shape="273.020282,597.701437 267.048634,594.684860 271.748805,585.455547 277.720460,588.472129 273.020282,597.701437"/>
    <poly id="110781616" type="building" color="255,230,230" fill="1" layer="-1.00" shape="299.867074,533.604065 305.850125,536.265003 310.014329,526.317667 303.655677,523.210820 299.867074,533.604065"/>
    <poly id="110781618" type="building" color="255,230,230" fill="1" layer="-1.00" shape="259.583465,620.726477 251.881201,615.473982 257.411658,606.960968 260.921717,609.442821 259.591168,611.725719 264.034059,614.938282 259.583465,620.726477"/>
    <poly id="110781621" type="building" color="255,230,230" fill="1" layer="-1.00" shape="311.294303,542.213198 315.406233,543.813080 316.402527,541.864435 319.218285,543.055789 319.784816,542.128153 324.629173,544.285473 320.330875,553.594331 318.567141,554.238981 308.444219,549.932751 311.294303,542.213198"/>
    <poly id="110781626" type="building" color="255,230,230" fill="1" layer="-1.00" shape="230.680368,554.494215 243.835071,560.599319 246.485228,555.454611 250.293436,545.596015 238.290919,540.261977 230.680368,554.494215"/>
    <poly id="110781632" type="building" color="255,230,230" fill="1" layer="-1.00" shape="301.076385,547.105227 290.933422,542.965282 294.438182,532.707614 294.852183,531.719478 297.715584,532.801080 297.147789,534.229352 299.568759,534.885170 299.050168,536.615416 304.722691,538.865904 301.076385,547.105227"/>
    <poly id="1153585000" type="building" color="255,230,230" fill="1" layer="-1.00" shape="644.895050,509.044576 652.659023,484.069905 663.271811,467.764587 666.319411,462.165466 687.680285,469.947072 665.372517,518.455652 644.895050,509.044576"/>
    <poly id="1153585001" type="building" color="255,230,230" fill="1" layer="-1.00" shape="674.152412,440.786766 695.513005,448.579514 687.680285,469.947072 666.319411,462.165466 668.906229,455.105215 674.152412,440.786766"/>
    <poly id="1162261384" type="building" color="255,230,230" fill="1" layer="-1.00" shape="1102.835633,205.786816 1120.464593,209.077837 1121.476867,203.658462 1124.488092,187.510780 1106.866413,184.219984 1105.774836,190.048487 1102.835633,205.786816"/>
    <poly id="1162261385" type="building" color="255,230,230" fill="1" layer="-1.00" shape="1125.138215,226.428729 1143.249577,229.813174 1147.236637,208.467484 1141.935640,207.474189 1129.125207,205.083028 1128.112925,210.502401 1125.138215,226.428729"/>
    <poly id="1169670964" type="building" color="255,230,230" fill="1" layer="-1.00" shape="904.010445,786.077148 894.936905,784.395810 891.168778,804.224352 900.247498,805.972608 900.478037,804.744987 904.010445,786.077148"/>
    <poly id="1169670965" type="building" color="255,230,230" fill="1" layer="-1.00" shape="891.168778,804.224352 888.830359,812.939138 901.989584,813.583061 907.276784,813.841392 908.929213,813.916564 909.619750,807.741406 900.247498,805.972608 891.168778,804.224352"/>
    <poly id="1169670966" type="building" color="255,230,230" fill="1" layer="-1.00" shape="896.440720,822.873729 893.414628,834.459294 905.712411,837.656913 908.738527,826.071354 904.617574,824.993655 899.635691,823.699245 896.440720,822.873729"/>
    <poly id="1169670967" type="building" color="255,230,230" fill="1" layer="-1.00" shape="907.276784,813.841392 904.617574,824.993655 899.635691,823.699245 901.989584,813.583061 907.276784,813.841392"/>
    <poly id="117560663" type="amenity" color="237,199,199" fill="1" layer="-1.00" shape="914.145395,1059.115184 923.309265,1060.487940 926.703915,1037.854782 925.247559,1037.630114 926.003585,1032.625302 918.289036,1031.465857 914.145395,1059.115184"/>
    <poly id="117560663#1" type="building" color="255,230,230" fill="1" layer="-1.00" shape="914.145395,1059.115184 923.309265,1060.487940 926.703915,1037.854782 925.247559,1037.630114 926.003585,1032.625302 918.289036,1031.465857 914.145395,1059.115184"/>
    <poly id="117560664" type="building" color="255,230,230" fill="1" layer="-1.00" shape="922.379415,1013.516847 928.733008,1014.688333 931.518470,999.823983 932.137337,996.116539 934.732339,982.147309 928.378353,980.986932 922.379415,1013.516847"/>
    <poly id="117560673" type="building" color="255,230,230" fill="1" layer="-1.00" shape="980.916868,1074.038186 983.096578,1077.623898 993.401055,1071.400760 990.404136,1066.464842 984.922038,1069.771677 985.738895,1071.132992 980.916868,1074.038186"/>
    <poly id="117560674" type="building" color="255,230,230" fill="1" layer="-1.00" shape="975.031390,1079.835494 969.583260,1075.655515 966.751874,1079.325448 972.200002,1083.505425 975.031390,1079.835494"/>
    <poly id="117560676" type="building" color="255,230,230" fill="1" layer="-1.00" shape="968.096971,1105.058883 970.000057,1092.257997 976.258530,1093.181719 974.348083,1105.982368 968.096971,1105.058883"/>
    <poly id="1265523486" type="building" color="255,230,230" fill="1" layer="-1.00" shape="1147.236637,208.467484 1149.083987,198.568786 1143.782624,197.586603 1141.935640,207.474189 1147.236637,208.467484"/>
    <poly id="1265523487" type="building" color="255,230,230" fill="1" layer="-1.00" shape="1129.125207,205.083028 1121.476867,203.658462 1120.464593,209.077837 1128.112925,210.502401 1129.125207,205.083028"/>
    <poly id="129994377" type="building" color="255,230,230" fill="1" layer="-1.00" shape="771.564122,259.464838 744.592403,262.651843 731.726753,264.287485 721.931865,265.353811 719.090085,265.663453 716.293635,247.538549 731.668905,245.170940 749.573811,242.595018 764.693710,240.163698 775.182455,220.861655 777.154605,217.386644 795.398110,226.760043 783.125324,253.771011 793.367653,263.778490 794.160376,266.819040 793.881819,270.926798 792.430685,273.061085 789.477716,275.236325 786.131407,276.141727 781.604333,276.019123 778.529207,274.885997 775.915010,270.841446 771.564122,259.464838"/>
    <poly id="131634156" type="building" color="255,230,230" fill="1" layer="-1.00" shape="381.885992,398.547891 381.930414,400.151467 384.573602,400.068966 388.600665,399.952768 388.374560,392.290795 381.704299,392.489494 381.885992,398.547891"/>
    <poly id="131634158" type="building" color="255,230,230" fill="1" layer="-1.00" shape="320.997579,388.215151 324.614937,389.643483 328.617826,391.206510 330.810640,385.646699 332.018432,382.603322 324.398174,379.611959 323.221905,382.589586 320.997579,388.215151"/>
    <poly id="131634159" type="building" color="255,230,230" fill="1" layer="-1.00" shape="368.572358,449.480892 375.418459,451.835671 377.842734,442.021971 374.691212,441.209283 370.932560,440.521853 368.572358,449.480892"/>
    <poly id="131634160" type="building" color="255,230,230" fill="1" layer="-1.00" shape="399.605782,458.182119 406.607162,452.909392 403.228298,444.935346 397.423490,443.370356 394.309420,442.536601 391.827109,451.402724 390.703749,455.717160 399.605782,458.182119"/>
    <poly id="131646317" type="building" color="255,230,230" fill="1" layer="-1.00" shape="240.165427,362.538133 246.238345,365.847174 251.863289,355.301086 246.887028,352.661212 246.366137,352.388694 240.165427,362.538133"/>
    <poly id="1317626191" type="building" color="255,230,230" fill="1" layer="-1.00" shape="1033.739109,696.461734 1034.148248,685.760339 1020.450218,685.165613 1019.848211,697.296103 1031.118348,697.913160 1033.739109,696.461734"/>
    <poly id="1317626192" type="building" color="255,230,230" fill="1" layer="-1.00" shape="1019.848211,697.296103 1020.450218,685.165613 1002.297620,684.261297 1001.688305,696.391553 1019.848211,697.296103"/>
    <poly id="1338092758" type="building" color="255,230,230" fill="1" layer="-1.00" shape="1083.088265,895.700063 1081.865469,901.724634 1086.747017,902.704463 1092.855763,903.946164 1094.078570,897.921595 1083.088265,895.700063"/>
    <poly id="1338092759" type="building" color="255,230,230" fill="1" layer="-1.00" shape="1084.302290,889.719716 1083.088265,895.700063 1094.078570,897.921595 1095.292607,891.941250 1084.302290,889.719716"/>
    <poly id="1338092760" type="building" color="255,230,230" fill="1" layer="-1.00" shape="1085.515960,883.750484 1084.302290,889.719716 1095.292607,891.941250 1096.506289,885.972020 1085.515960,883.750484"/>
    <poly id="1338092761" type="building" color="255,230,230" fill="1" layer="-1.00" shape="1085.664222,908.032572 1086.747017,902.704463 1081.865469,901.724634 1070.400451,899.398899 1069.325018,904.727246 1085.664222,908.032572"/>
    <poly id="1338092762" type="building" color="255,230,230" fill="1" layer="-1.00" shape="1067.279145,917.156369 1088.836880,921.252055 1089.782660,916.297845 1068.224907,912.202155 1067.279145,917.156369"/>
    <poly id="1338092763" type="building" color="255,230,230" fill="1" layer="-1.00" shape="1089.557663,763.639385 1090.721790,758.069108 1085.402835,756.963999 1084.238713,762.534277 1089.557663,763.639385"/>
    <poly id="1338092765" type="building" color="255,230,230" fill="1" layer="-1.00" shape="1069.626188,762.711189 1070.892761,756.009323 1055.949547,753.193856 1054.689982,759.907076 1069.626188,762.711189"/>
    <poly id="1338092766" type="building" color="255,230,230" fill="1" layer="-1.00" shape="1036.491584,794.404662 1038.022931,788.389973 1038.501928,786.525000 1035.787957,785.837208 1035.468151,787.095343 1030.237161,785.770581 1028.553979,792.392346 1036.491584,794.404662"/>
    <poly id="1338092767" type="building" color="255,230,230" fill="1" layer="-1.00" shape="1029.106293,773.551177 1026.253657,784.763955 1030.237161,785.770581 1035.468151,787.095343 1035.787957,785.837208 1038.320805,775.882570 1029.106293,773.551177"/>
    <poly id="135548925" type="building" color="255,230,230" fill="1" layer="-1.00" shape="435.764539,520.118727 442.427545,522.445495 456.703413,527.296287 520.250124,549.219945 512.600840,571.316765 428.115920,542.204540 435.764539,520.118727"/>
    <poly id="137463482" type="building" color="255,230,230" fill="1" layer="-1.00" shape="932.736021,1043.321805 939.447348,1044.115348 940.212225,1037.686670 933.500890,1036.893126 932.736021,1043.321805"/>
    <poly id="137463487" type="building" color="255,230,230" fill="1" layer="-1.00" shape="948.305101,1060.554302 949.283626,1063.756609 958.992095,1065.347141 956.409792,1057.798750 948.305101,1060.554302"/>
    <poly id="137463489" type="building" color="255,230,230" fill="1" layer="-1.00" shape="946.419119,1054.686022 954.323668,1051.979686 952.581033,1046.917081 944.676477,1049.623420 946.419119,1054.686022"/>
    <poly id="137463490" type="building" color="255,230,230" fill="1" layer="-1.00" shape="952.156506,1134.778004 993.366119,1146.623737 994.682078,1142.048541 953.479778,1130.203034 952.156506,1134.778004"/>
    <poly id="137463496" type="building" color="255,230,230" fill="1" layer="-1.00" shape="1012.467671,1144.031521 1006.017817,1132.787652 1008.137944,1131.576083 1007.037333,1129.660488 1004.120309,1128.888312 1004.601993,1127.168063 957.354471,1113.938312 953.614660,1127.370181 1012.467671,1144.031521"/>
    <poly id="140684022" type="building" color="255,230,230" fill="1" layer="-1.00" shape="530.310159,1089.180533 532.671008,1084.115718 518.256543,1077.435530 515.895705,1082.500351 530.310159,1089.180533"/>
    <poly id="140684023" type="building" color="255,230,230" fill="1" layer="-1.00" shape="497.014800,1130.206613 494.554300,1133.788482 492.088943,1137.292314 507.554077,1147.221469 512.581962,1139.705122 497.014800,1130.206613"/>
    <poly id="140684025" type="building" color="255,230,230" fill="1" layer="-1.00" shape="544.769413,1109.413811 555.269856,1114.066391 560.863218,1101.516895 550.362754,1096.864305 544.769413,1109.413811"/>
    <poly id="140684026" type="building" color="255,230,230" fill="1" layer="-1.00" shape="561.787373,1094.002921 564.285168,1085.115105 565.799491,1079.845223 529.105708,1062.895506 520.998429,1075.175544 561.787373,1094.002921"/>
    <poly id="140684027" type="building" color="255,230,230" fill="1" layer="-1.00" shape="574.779505,1075.926617 576.037304,1071.549753 568.800418,1069.482592 567.527932,1073.858988 573.824519,1075.662439 574.779505,1075.926617"/>
    <poly id="140684028" type="building" color="255,230,230" fill="1" layer="-1.00" shape="548.654293,1064.032121 562.510663,1065.854680 563.102723,1061.367523 563.761490,1056.404076 549.905452,1054.570399 548.654293,1064.032121"/>
    <poly id="140684029" type="building" color="255,230,230" fill="1" layer="-1.00" shape="570.581743,1086.918553 573.824519,1075.662439 567.527932,1073.858988 565.799491,1079.845223 564.285168,1085.115105 570.581743,1086.918553"/>
    <poly id="140684031" type="building" color="255,230,230" fill="1" layer="-1.00" shape="562.414100,1066.574792 569.451775,1067.511837 570.140405,1062.304569 568.858952,1062.130091 563.102723,1061.367523 562.510663,1065.854680 562.414100,1066.574792"/>
    <poly id="140684032" type="building" color="255,230,230" fill="1" layer="-1.00" shape="576.037304,1071.549753 580.888883,1055.060161 581.164558,1050.117845 572.448074,1048.782208 568.858952,1062.130091 570.140405,1062.304569 569.451775,1067.511837 568.800418,1069.482592 576.037304,1071.549753"/>
    <poly id="1426483074" type="building" color="255,230,230" fill="1" layer="-1.00" shape="538.458755,778.988725 555.074381,755.253696 542.881703,746.686310 526.468171,770.772741 538.458755,778.988725"/>
    <poly id="1426818351" type="building" color="255,230,230" fill="1" layer="-1.00" shape="565.763594,533.573600 575.352087,506.732338 643.457413,530.082619 633.877617,556.412258 565.763594,533.573600"/>
    <poly id="143589597" type="building" color="255,230,230" fill="1" layer="-1.00" shape="941.502697,1010.947314 941.841281,1007.954094 936.844133,1007.371226 935.333385,1019.405854 937.898047,1017.863586 937.359385,1017.000742 943.080879,1013.568014 941.502697,1010.947314"/>
    <poly id="143731985" type="building" color="255,230,230" fill="1" layer="-1.00" shape="967.724731,987.209639 978.481754,981.557274 970.950806,967.319263 960.193410,972.982758 967.724731,987.209639"/>
    <poly id="143731987" type="building" color="255,230,230" fill="1" layer="-1.00" shape="1057.239330,1046.354454 1066.733543,1048.205334 1069.825631,1032.505271 1060.339095,1030.643507 1057.239330,1046.354454"/>
    <poly id="143731988" type="building" color="255,230,230" fill="1" layer="-1.00" shape="985.628054,982.320300 1021.503449,987.152665 1022.668857,978.556098 986.793407,973.723727 985.628054,982.320300"/>
    <poly id="143731989" type="building" color="255,230,230" fill="1" layer="-1.00" shape="1008.350227,1054.267059 1019.237903,1048.207294 1013.915948,1038.713001 1003.028616,1044.761662 1008.350227,1054.267059"/>
    <poly id="143731990" type="building" color="255,230,230" fill="1" layer="-1.00" shape="989.243692,1023.035568 1001.131617,1015.828441 996.617650,1008.429529 984.729360,1015.647780 989.243692,1023.035568"/>
    <poly id="143731991" type="building" color="255,230,230" fill="1" layer="-1.00" shape="952.554031,962.357307 963.763433,956.129716 957.544782,945.004593 946.335365,951.232196 952.554031,962.357307"/>
    <poly id="143731992" type="building" color="255,230,230" fill="1" layer="-1.00" shape="981.651172,1009.574396 989.905281,1004.453799 985.883015,998.005251 984.043334,995.053500 981.672164,996.524064 975.781514,1000.184985 981.651172,1009.574396"/>
    <poly id="143731993" type="building" color="255,230,230" fill="1" layer="-1.00" shape="995.545327,992.317842 982.354811,990.827083 981.672164,996.524064 984.043334,995.053500 985.883015,998.005251 994.795302,998.969516 995.545327,992.317842"/>
    <poly id="143731994" type="building" color="255,230,230" fill="1" layer="-1.00" shape="1007.790223,1032.497433 1014.903003,1028.108005 1010.125774,1020.433615 1003.012988,1024.823049 1002.208684,1023.528891 993.625266,1028.828062 999.961822,1039.022416 1008.545588,1033.712140 1007.790223,1032.497433"/>
    <poly id="143731995" type="building" color="255,230,230" fill="1" layer="-1.00" shape="1031.553092,1090.314039 1052.529982,1094.613531 1057.982098,1068.152208 1062.329667,1069.037024 1063.366425,1063.996718 1058.515117,1062.995617 1060.736328,1052.207661 1040.263373,1048.013309 1036.988278,1063.918915 1031.553092,1090.314039"/>
    <poly id="143820545" type="building" color="255,230,230" fill="1" layer="-1.00" shape="948.277493,1060.497787 964.142157,1055.187047 960.762354,1049.804959 946.419119,1054.686022 948.277493,1060.497787"/>
    <poly id="154658248" type="building" color="255,230,230" fill="1" layer="-1.00" shape="231.236609,762.758881 214.377600,747.367713 224.146178,736.720154 241.005552,752.100236 231.236609,762.758881"/>
    <poly id="156298506" type="building" color="255,230,230" fill="1" layer="-1.00" shape="234.905365,387.470764 249.734299,392.983955 251.441127,388.821625 248.414159,387.100646 252.260162,377.443522 241.367862,372.111542 234.905365,387.470764"/>
    <poly id="156298515" type="building" color="255,230,230" fill="1" layer="-1.00" shape="234.905365,387.470764 231.461400,397.207480 230.870761,398.890928 232.063393,399.318386 245.994899,404.602671 249.734299,392.983955 234.905365,387.470764"/>
    <poly id="156298521" type="building" color="255,230,230" fill="1" layer="-1.00" shape="260.595414,395.833843 264.736440,383.616015 252.260162,377.443522 248.414159,387.100646 251.441127,388.821625 249.734299,392.983955 260.595414,395.833843"/>
    <poly id="156298531" type="building" color="255,230,230" fill="1" layer="-1.00" shape="256.330043,407.569284 260.595414,395.833843 249.734299,392.983955 245.994899,404.602671 251.387084,405.731544 256.039323,407.459874 256.330043,407.569284"/>
    <poly id="156298540" type="building" color="255,230,230" fill="1" layer="-1.00" shape="240.929089,418.604558 250.666457,421.863623 254.744978,410.912168 256.039323,407.459874 251.387084,405.731544 249.473416,410.844118 244.248660,409.308923 240.929089,418.604558"/>
    <poly id="161697750" type="building" color="255,230,230" fill="1" layer="-1.00" shape="529.186788,532.871968 551.349273,470.917923 517.481070,458.865310 495.318932,520.819480 529.186788,532.871968"/>
    <poly id="161697752" type="building" color="255,230,230" fill="1" layer="-1.00" shape="488.265280,502.402939 513.515908,442.772646 514.621413,440.171080 537.570488,447.746942 543.024381,431.521334 543.975000,428.703427 539.441129,426.956382 523.531425,420.517781 500.143372,413.094851 503.052125,403.318923 480.781418,395.453355 467.515504,418.383288 446.996261,477.964611 460.598724,485.019119 456.356821,492.093342 488.265280,502.402939"/>
    <poly id="161697752#1" type="tourism" color="207,245,201" fill="1" layer="-2.00" shape="488.265280,502.402939 513.515908,442.772646 514.621413,440.171080 537.570488,447.746942 543.024381,431.521334 543.975000,428.703427 539.441129,426.956382 523.531425,420.517781 500.143372,413.094851 503.052125,403.318923 480.781418,395.453355 467.515504,418.383288 446.996261,477.964611 460.598724,485.019119 456.356821,492.093342 488.265280,502.402939"/>
    <poly id="161698195" type="building" color="255,230,230" fill="1" layer="-1.00" shape="452.112898,647.523016 458.374099,630.188268 462.184185,631.333578 462.458608,630.340995 464.680758,622.022893 468.820476,610.316954 469.048931,609.612181 473.274048,596.384695 460.755291,592.023895 450.111598,588.368331 428.755700,639.622895 426.572748,638.885610 407.398557,685.169792 409.097272,685.869355 408.953304,686.231918 409.344387,686.422425 408.349643,688.782771 423.420818,694.971781 425.054051,691.964263 427.754745,692.840472 429.460092,693.562505 435.353431,696.031586 437.897206,688.925368 442.970434,674.701352 448.202072,659.202897 448.283712,658.949605 452.112898,647.523016"/>
    <poly id="168158714" type="building" color="255,230,230" fill="1" layer="-1.00" shape="299.153801,600.894146 298.964488,600.142656 300.086892,598.620824 300.876627,598.534767 301.343274,597.971104 301.308615,597.213423 304.096487,593.285880 304.743933,593.740461 309.942802,597.233089 304.991597,605.108104 299.153801,600.894146"/>