<?xml version="1.0" encoding="UTF-8"?>

<!-- generated on 12/09/25 21:03:53 by Eclipse SUMO polyconvert Version 1.5.0
<configuration xmlns:xsi="http://www.w3.org/2001/XMLSchema-instance" xsi:noNamespaceSchemaLocation="http://sumo.dlr.de/xsd/polyconvertConfiguration.xsd">

    <input>
        <net-file value="ingolstadt_rathaus.net.xml"/>
        <osm-files value="ingolstadt_rathaus.osm"/>
        <type-file value="C:\Program%20Files%20(x86)\Eclipse\Sumo\\data\typemap\osmPolyconvert.typ.xml"/>
    </input>

    <output>
        <output-file value="ingolstadt_rathaus.poly.xml"/>
    </output>

    <processing>
        <poi-layer-offset value="5"/>
    </processing>

</configuration>
-->

<additional xmlns:xsi="http://www.w3.org/2001/XMLSchema-instance" xsi:noNamespaceSchemaLocation="http://sumo.dlr.de/xsd/additional_file.xsd">
    <location netOffset="-675870.86,-5402670.61" convBoundary="-8658.95,-1812.77,15195.49,3489.33" origBoundary="11.274814,48.736903,11.600781,48.783174" projParameter="+proj=utm +zone=32 +ellps=WGS84 +datum=WGS84 +units=m +no_defs"/>

        <poly id="1000643178" type="landuse" color="194,194,130" fill="0" layer="-3.00" shape="2406.050713,3035.783839 2423.388282,3013.450174 2432.238021,2997.877634 2491.961438,2890.189989 2501.555310,2875.275459 2517.103427,2852.818215 2532.310101,2830.695027 2561.479032,2789.969407 2577.846107,2766.058664 2597.233087,2734.622941 2609.229626,2717.482130 2780.882907,2475.817775 2790.577654,2462.164141"/>
    <poly id="1009729810" type="landuse" color="194,194,130" fill="1" layer="-3.00" shape="2764.136770,516.878777 2764.151294,511.583229 2763.171172,508.870564 2760.846626,505.870217 2757.266706,503.018951 2752.032942,500.815849 2747.279912,499.685071 2730.388839,496.931970 2744.319414,500.936849 2754.412324,510.627098 2764.136770,516.878777"/>
    <poly id="1009729811" type="landuse" color="194,194,130" fill="1" layer="-3.00" shape="2786.941370,522.891538 2787.741200,519.267715 2789.739179,515.904659 2793.515732,512.364730 2798.826618,510.998863 2826.039371,510.510231 2917.383472,507.586106 2922.943090,508.798427 2927.014498,511.921405 2930.014747,515.644355 2936.269893,552.193132 2937.146087,559.998264 2936.704862,566.670951 2934.848289,569.059380 2932.850818,569.640881 2934.457396,564.485193 2927.111609,519.935294 2921.719620,514.166625 2824.227881,528.999574 2818.693461,535.754430 2816.467286,540.734599 2809.736737,595.326802 2808.635456,605.627774 2802.664772,618.677201 2798.074226,620.755872 2796.706386,598.849459 2797.196626,585.335795 2798.906398,569.569090 2801.973262,552.310308 2805.202216,537.348675 2808.162197,525.282363 2806.366861,522.988707 2803.524605,523.532160 2795.606268,561.642108 2792.187570,588.079803 2792.110792,608.460330 2793.175682,625.339208 2791.868029,626.665973 2789.802988,601.711013 2788.176881,575.679712 2787.164368,544.483247 2786.941370,522.891538"/>
    <poly id="1009729812" type="landuse" color="194,194,130" fill="1" layer="-3.00" shape="2778.918599,633.417813 2777.404068,621.175288 2775.978731,611.438978 2773.499298,603.382440 2768.953956,602.892454 2773.261409,617.749739 2778.918599,633.417813"/>
    <poly id="1009729813" type="landuse" color="194,194,130" fill="1" layer="-3.00" shape="2868.274315,614.140939 2864.802966,598.909728 2815.046965,606.422145 2810.833329,608.446083 2804.009971,620.322301 2801.534240,622.290465 2799.052533,623.524118 2799.071873,628.909759 2809.779384,705.977056 2820.369833,704.445993 2807.428869,623.836028 2868.274315,614.140939"/>
    <poly id="1009729814" type="forest" color="140,196,107" fill="1" layer="-4.00" shape="2647.114218,830.838789 2601.954188,732.368063 2593.277846,740.547196 2630.807627,826.858457 2624.608532,833.481017 2628.121134,840.513463 2647.114218,830.838789"/>
    <poly id="1009729815" type="landuse" color="194,194,130" fill="1" layer="-3.00" shape="2658.315458,907.231663 2674.702434,900.845155 2679.913887,898.663820 2684.863730,908.601565 2682.507551,909.594493 2686.888804,919.369460 2667.734300,928.115374 2658.315458,907.231663"/>
    <poly id="101238052" type="building" color="255,230,230" fill="1" layer="-1.00" shape="2648.884382,1426.040118 2660.603744,1432.422114 2685.846815,1446.033716 2691.112799,1436.366302 2654.150317,1416.372671 2648.884382,1426.040118"/>
    <poly id="1020252891" type="forest" color="140,196,107" fill="1" layer="-4.00" shape="3354.546046,818.947106 3361.157439,813.261977 3363.178292,810.801061 3364.846869,808.773909 3371.328315,814.956230 3374.318823,819.658234 3369.888425,825.691352 3360.889102,830.599048 3354.546046,818.947106"/>
    <poly id="1020252892" type="forest" color="140,196,107" fill="1" layer="-4.00" shape="3378.512487,862.817373 3383.478891,871.054030 3388.627230,872.921235 3393.071025,872.440511 3397.938860,870.204316 3401.196314,867.260095 3393.184182,855.588015 3389.575551,855.027380 3378.614606,861.007081 3378.512487,862.817373"/>
    <poly id="1020252893" type="forest" color="140,196,107" fill="1" layer="-4.00" shape="3399.894742,873.905220 3421.984291,915.724005 3424.985801,923.753117 3430.600050,922.097173 3426.895935,913.956538 3413.624969,885.960763 3404.236812,871.318404 3399.894742,873.905220"/>
    <poly id="1020252894" type="forest" color="140,196,107" fill="1" layer="-4.00" shape="3426.537572,927.897258 3431.954023,925.756554 3441.290961,949.109112 3450.897193,988.848030 3452.775045,1018.626181 3452.436579,1046.864662 3447.949441,1046.865518 3447.527293,1021.473215 3445.171209,993.304163 3436.496618,954.563082 3426.537572,927.897258"/>
    <poly id="1020252907" type="natural" color="140,196,107" fill="1" layer="-4.00" shape="3370.505875,1315.795968 3373.793393,1318.794077 3377.877827,1321.483932 3382.496200,1323.578955 3381.704058,1336.137267 3373.760963,1368.716120 3370.393671,1372.112996 3367.638389,1372.937082 3359.702611,1372.682887 3357.644148,1371.960510 3355.647630,1369.304166 3353.593607,1364.309487 3351.965561,1358.416109 3351.519139,1351.915260 3352.087292,1346.348126 3354.697189,1342.025761 3360.070619,1332.718386 3362.443822,1331.882056 3369.150626,1321.593791 3368.057057,1319.222268 3370.505875,1315.795968"/>
    <poly id="1020252908" type="natural" color="140,196,107" fill="1" layer="-4.00" shape="3343.057730,1396.549426 3343.090873,1391.610474 3353.156451,1386.225144 3372.554419,1385.945272 3374.989368,1387.313907 3378.824829,1393.411521 3382.109446,1396.498555 3381.938955,1397.917242 3343.057730,1396.549426"/>
    <poly id="1020252912" type="natural" color="140,196,107" fill="1" layer="-4.00" shape="3286.466868,935.371991 3282.577053,927.970970 3275.895188,935.634378 3278.206122,938.356377 3286.466868,935.371991"/>
    <poly id="1020252913" type="forest" color="140,196,107" fill="1" layer="-4.00" shape="3290.577413,930.363307 3287.287982,925.807544 3299.930581,914.396326 3312.039226,895.769424 3310.529706,913.278148 3290.577413,930.363307"/>
    <poly id="1020252914" type="natural" color="140,196,107" fill="1" layer="-4.00" shape="3290.577413,930.363307 3310.529706,913.278148 3310.034433,920.705681 3304.944178,924.147578 3304.726054,925.676002 3290.827911,933.108358 3285.103488,924.191077 3284.767651,921.354286 3289.465545,919.368462 3294.670728,912.336488 3293.881279,910.341887 3312.322905,889.436605 3312.039226,895.769424 3299.930581,914.396326 3287.287982,925.807544 3290.577413,930.363307"/>
    <poly id="1020252915" type="natural" color="140,196,107" fill="1" layer="-4.00" shape="3334.775924,912.341075 3326.257939,902.221682 3327.841903,890.200533 3328.927522,888.688761 3333.133126,885.997386 3332.353969,888.965370 3332.357928,891.368745 3335.899480,898.847659 3336.224260,902.029011 3336.205669,905.366260 3334.775924,912.341075"/>
    <poly id="1020252916" type="natural" color="140,196,107" fill="1" layer="-4.00" shape="3344.664101,920.101114 3343.033626,906.697523 3343.124032,903.874377 3337.238553,891.947823 3336.933473,887.921515 3337.933759,886.318003 3339.388778,886.364596 3361.338271,927.744715 3368.948115,944.855683 3344.664101,920.101114"/>
    <poly id="1020252917" type="natural" color="140,196,107" fill="1" layer="-4.00" shape="3352.484168,957.524011 3346.165861,929.484044 3365.655732,948.432991 3363.107535,952.890849 3359.515574,955.256941 3356.637765,956.455409 3352.484168,957.524011"/>
    <poly id="1020252918" type="natural" color="140,196,107" fill="1" layer="-4.00" shape="3367.589568,990.028852 3368.458357,954.864660 3365.074949,958.528062 3360.866889,961.297214 3354.534790,963.319651 3367.589568,990.028852"/>
    <poly id="1020252919" type="natural" color="140,196,107" fill="1" layer="-4.00" shape="3371.374668,997.938391 3373.145829,955.960516 3378.271561,970.243778 3381.576710,982.343637 3384.708929,997.085984 3387.696465,1019.100205 3384.590908,1019.601540 3372.158379,1000.110840 3371.374668,997.938391"/>
    <poly id="1020252920" type="forest" color="140,196,107" fill="1" layer="-4.00" shape="3385.224234,1117.175961 3368.176038,1091.373514 3363.359875,1086.490642 3355.668016,1081.593556 3345.567472,1078.866824 3334.612125,1076.646793 3390.675137,1064.812859 3385.224234,1117.175961"/>
    <poly id="1020252921" type="forest" color="140,196,107" fill="1" layer="-4.00" shape="3444.879448,1063.244992 3451.568097,1063.637339 3441.915821,1159.636116 3437.284440,1206.150845 3434.894103,1229.327936 3425.052350,1251.821223 3413.276255,1261.913633 3406.605441,1267.630153 3400.260155,1274.436348 3395.520032,1282.339831 3391.286227,1297.858705 3384.599262,1305.688702 3388.229742,1309.231862 3382.526265,1319.196210 3378.214792,1318.312644 3371.940737,1313.483185 3373.081937,1310.693696 3375.593151,1311.519590 3390.993823,1288.158452 3392.873432,1274.488983 3412.025300,1249.990812 3415.374438,1253.591731 3424.964543,1242.394548 3421.422451,1236.551082 3426.628709,1236.829158 3430.307494,1226.010013 3426.241101,1224.132911 3426.643516,1220.985975 3431.763653,1220.738365 3444.879448,1063.244992"/>
    <poly id="1020252922" type="natural" color="140,196,107" fill="1" layer="-4.00" shape="3392.873432,1274.488983 3390.993823,1288.158452 3386.741206,1285.207300 3392.873432,1274.488983"/>
    <poly id="1020252923" type="natural" color="140,196,107" fill="1" layer="-4.00" shape="3405.487203,1064.208120 3405.037267,1062.179871 3442.157057,1057.527922 3447.853424,1058.355767 3451.328542,1059.635370 3451.568097,1063.637339 3444.879448,1063.244992 3418.231475,1062.480186 3416.922658,1064.529972 3405.487203,1064.208120"/>
    <poly id="1020252924" type="natural" color="140,196,107" fill="1" layer="-4.00" shape="3398.677347,1049.459203 3398.848964,1054.894265 3393.428692,1055.321444 3391.387724,1025.115308 3392.590784,1023.840960 3394.246172,1046.335444 3398.260520,1046.397283 3398.677347,1049.459203"/>
    <poly id="1020252925" type="forest" color="140,196,107" fill="1" layer="-4.00" shape="3280.526373,1086.007812 3286.917167,1104.893208 3283.252551,1112.519683 3282.774372,1120.103531 3284.228893,1128.205427 3286.313773,1133.390202 3285.635125,1147.465302 3282.469591,1156.276000 3280.917153,1168.465060 3278.564049,1178.781547 3274.438443,1181.508889 3277.698679,1186.052595 3268.138685,1241.811195 3254.466384,1239.226172 3258.564790,1181.968712 3260.075125,1134.786579 3258.714558,1085.142684 3259.017942,1068.541065 3255.926153,1044.943688 3257.323501,1040.126293 3257.045076,1034.576562 3254.712880,1029.762176 3253.119886,1019.319371 3258.087196,998.572351 3258.609406,985.704996 3257.186332,970.182985 3257.997999,962.520803 3259.725922,957.947638 3262.826839,984.938776 3267.882267,1018.200870 3273.018899,1052.600441 3276.690664,1075.771353 3280.526373,1086.007812"/>
    <poly id="1020252926" type="natural" color="140,196,107" fill="1" layer="-4.00" shape="3390.675137,1064.812859 3334.612125,1076.646793 3322.963764,1078.610276 3295.165128,1083.461288 3304.895025,1079.155462 3390.675137,1064.812859"/>
    <poly id="1020252929" type="natural" color="140,196,107" fill="1" layer="-4.00" shape="3307.574399,875.999956 3302.428191,873.376318 3294.316269,874.006707 3270.398335,887.894172 3244.388460,932.901340 3260.881046,938.636255 3307.574399,875.999956"/>
    <poly id="1020252933" type="forest" color="140,196,107" fill="1" layer="-4.00" shape="3236.747081,940.667595 3259.062556,943.740577 3254.967353,954.935906 3253.765084,966.757888 3255.070670,991.466328 3252.786859,1004.444189 3247.847950,1007.757462 3242.254703,970.839933 3236.747081,940.667595"/>
    <poly id="1021661418" type="building" color="255,230,230" fill="1" layer="-1.00" shape="2664.648646,749.287739 2687.833479,747.735422 2686.108102,730.568478 2662.769133,732.338411 2664.648646,749.287739"/>
    <poly id="1023019293" type="building" color="255,230,230" fill="1" layer="-1.00" shape="2090.584951,2557.852886 2114.595937,2559.673847 2115.606997,2546.388144 2091.595954,2544.567179 2090.584951,2557.852886"/>
    <poly id="1023430513" type="landuse" color="194,194,130" fill="1" layer="-3.00" shape="1755.709930,2217.400445 1756.545963,2214.000184 1881.272058,2244.586544 1883.213226,2245.059889 1882.369418,2248.471014 1755.709930,2217.400445"/>
    <poly id="1023430515" type="landuse" color="194,194,130" fill="1" layer="-3.00" shape="1886.613436,2249.607214 1887.546820,2246.154432 1892.469848,2247.445725 1897.523279,2249.030442 1901.956826,2250.450827 1905.651176,2251.758716 1905.827002,2252.242722 1904.550718,2252.369052 1902.354043,2252.299243 1899.105441,2252.006863 1895.475233,2251.457586 1891.331530,2250.636096 1886.613436,2249.607214"/>
    <poly id="1023430516" type="landuse" color="194,194,130" fill="1" layer="-3.00" shape="1953.473013,2280.748843 1955.419355,2278.051462 1944.779618,2270.826238 1932.939720,2264.108063 1925.319633,2259.749237 1924.946926,2260.137928 1924.644998,2261.307689 1924.982234,2262.497766 1926.036905,2264.022174 1937.782717,2270.692839 1953.473013,2280.748843"/>
    <poly id="1023430518" type="landuse" color="194,194,130" fill="1" layer="-3.00" shape="1960.958395,2286.104770 1962.897746,2283.396043 1981.195275,2297.028587 1980.415393,2297.270817 1977.967756,2296.536562 1975.343240,2295.351644 1960.958395,2286.104770"/>
    <poly id="1023430519" type="landuse" color="194,194,130" fill="1" layer="-3.00" shape="1719.854844,2208.473864 1720.572123,2205.570499 1717.347068,2204.767178 1687.831071,2197.466179 1675.765944,2194.123726 1663.812539,2190.273050 1652.463914,2185.440254 1639.927560,2179.101163 1629.805936,2172.449310 1627.540226,2175.481569 1638.648083,2182.109082 1651.304510,2188.140454 1662.998430,2192.984206 1674.763221,2196.984659 1687.106816,2200.358201 1716.855778,2207.733348 1719.854844,2208.473864"/>
    <poly id="1023430521" type="landuse" color="194,194,130" fill="1" layer="-3.00" shape="1624.888844,2173.517152 1627.154554,2170.484892 1620.115814,2165.176988 1619.160136,2164.701627 1618.082207,2164.834316 1617.485585,2165.327182 1617.016915,2166.191265 1617.264710,2167.189339 1617.984524,2167.913114 1624.888844,2173.517152"/>
    <poly id="102818923" type="leisure" color="207,245,201" fill="1" layer="-2.00" shape="2227.330970,803.823762 2284.422500,759.890647 2272.566496,744.571001 2250.486954,761.558621 2245.582919,755.238728 2210.571228,782.173261 2227.330970,803.823762"/>
    <poly id="102818926" type="amenity" color="237,199,199" fill="1" layer="-1.00" shape="2238.401000,960.329798 2248.513529,955.533680 2242.659571,943.242247 2255.475443,937.174804 2261.336376,949.477600 2271.045406,944.880072 2260.495663,922.737248 2227.857807,938.209501 2238.401000,960.329798"/>
    <poly id="102818929" type="building" color="255,230,230" fill="1" layer="-1.00" shape="2160.187069,907.340089 2173.625620,868.982317 2174.941541,865.308092 2160.245931,860.167657 2145.469869,902.187874 2160.187069,907.340089"/>
    <poly id="102818930" type="amenity" color="237,199,199" fill="1" layer="-1.00" shape="2331.688227,807.868875 2337.065137,803.723186 2322.403778,784.798265 2317.027217,788.932854 2331.688227,807.868875"/>
    <poly id="103053756" type="leisure" color="207,245,201" fill="1" layer="-2.00" shape="2321.144639,805.630609 2323.817323,809.020139 2229.253861,883.246869 2226.595151,879.880083 2321.144639,805.630609"/>
    <poly id="103053763" type="leisure" color="207,245,201" fill="1" layer="-2.00" shape="1714.198230,1252.216289 1734.347058,1250.986599 1733.390198,1235.479998 1713.248663,1236.709926 1714.198230,1252.216289"/>
    <poly id="103053764" type="building" color="255,230,230" fill="1" layer="-1.00" shape="1786.621801,1205.360589 1788.839685,1206.165318 1790.069143,1207.984509 1790.021608,1210.408463 1788.754121,1212.103875 1776.787356,1220.424476 1764.513864,1230.993936 1762.734172,1235.154187 1764.970424,1237.928788 1757.274601,1253.516759 1754.202364,1252.284387 1753.818027,1252.806234 1755.748888,1267.286793 1750.352430,1267.905438 1750.229351,1266.221509 1749.365097,1254.055634 1745.771075,1254.431097 1745.456593,1252.752218 1745.200139,1249.940332 1745.253351,1248.495644 1744.384731,1243.650525 1737.657325,1242.402279 1735.992405,1237.153604 1735.895615,1232.555504 1737.119104,1231.782141 1744.392501,1227.184327 1748.049121,1229.703603 1751.744585,1226.828016 1767.695637,1216.264011 1783.611587,1206.344241 1786.621801,1205.360589"/>
    <poly id="103053780" type="amenity" color="237,199,199" fill="1" layer="-1.00" shape="1706.721762,1108.843406 1712.688762,1120.614895 1757.256432,1099.065376 1750.842491,1086.545336 1706.721762,1108.843406"/>
    <poly id="103053800" type="leisure" color="207,245,201" fill="1" layer="-2.00" shape="1756.025706,1213.612737 1745.965362,1209.610705 1749.154507,1201.367450 1754.169268,1202.116305 1760.900319,1196.299689 1766.837264,1200.437873 1761.907681,1211.140342 1756.025706,1213.612737"/>
    <poly id="103397397" type="building" color="255,230,230" fill="1" layer="-1.00" shape="2359.317791,1976.783484 2361.005102,1998.154771 2378.132238,1996.820142 2376.444991,1975.448848 2359.317791,1976.783484"/>
    <poly id="103505647" type="building" color="255,230,230" fill="1" layer="-1.00" shape="3511.249897,500.541252 3506.110875,491.486753 3451.553100,522.282541 3456.692531,531.325874 3511.249897,500.541252"/>
    <poly id="103505648" type="building" color="255,230,230" fill="1" layer="-1.00" shape="3434.395250,793.767287 3482.871088,767.427297 3477.284329,757.201340 3428.808436,783.541379 3434.395250,793.767287"/>
    <poly id="103505650" type="building" color="255,230,230" fill="1" layer="-1.00" shape="3475.034738,692.419512 3473.056083,686.214468 3466.772138,666.520082 3464.866821,660.551041 3454.454587,663.855671 3464.622910,695.713007 3475.034738,692.419512"/>
    <poly id="103505653" type="building" color="255,230,230" fill="1" layer="-1.00" shape="3397.411969,503.569697 3406.806922,501.255970 3397.113518,462.126375 3387.718506,464.440120 3397.411969,503.569697"/>
    <poly id="103505656" type="building" color="255,230,230" fill="1" layer="-1.00" shape="3383.142218,686.571688 3372.133892,668.294902 3367.836139,670.872043 3378.851465,689.160171 3383.142218,686.571688"/>
    <poly id="103505657" type="building" color="255,230,230" fill="1" layer="-1.00" shape="3423.681939,469.597437 3434.543954,469.945392 3435.974249,425.297474 3425.112147,424.949518 3423.681939,469.597437"/>
    <poly id="103505659" type="building" color="255,230,230" fill="1" layer="-1.00" shape="3424.720817,777.035139 3413.005751,757.177949 3407.780062,760.248261 3419.488146,780.094090 3424.720817,777.035139"/>
    <poly id="103505660" type="building" color="255,230,230" fill="1" layer="-1.00" shape="3413.679784,735.447913 3408.417809,726.790100 3378.652632,744.751163 3383.906927,753.419827 3413.679784,735.447913"/>
    <poly id="103505661" type="building" color="255,230,230" fill="1" layer="-1.00" shape="3382.929820,645.887691 3401.207071,675.623609 3411.112643,669.532243 3397.547921,647.468509 3392.835419,639.796292 3382.929820,645.887691"/>
    <poly id="103505663" type="building" color="255,230,230" fill="1" layer="-1.00" shape="3433.871268,423.427670 3441.411539,423.669223 3441.093568,433.594688 3455.916861,434.069584 3456.475581,416.630555 3434.111961,415.914104 3433.871268,423.427670"/>
    <poly id="103505667" type="building" color="255,230,230" fill="1" layer="-1.00" shape="3458.355267,547.623331 3446.164799,554.531516 3442.697274,548.412302 3441.236083,549.244456 3438.617773,544.632230 3440.078608,543.811191 3433.038271,531.413637 3431.479760,532.298306 3429.112112,528.128036 3430.677974,527.243601 3422.502001,512.862608 3420.763905,513.841663 3418.180168,509.297313 3419.925615,508.318493 3415.657031,500.793998 3427.840220,493.885510 3458.355267,547.623331"/>
    <poly id="103505668" type="building" color="255,230,230" fill="1" layer="-1.00" shape="3372.932554,661.043980 3367.345812,651.496848 3334.131255,670.805218 3339.710681,680.352082 3346.222824,676.621951 3372.932554,661.043980"/>
    <poly id="103505669" type="building" color="255,230,230" fill="1" layer="-1.00" shape="3399.435628,638.372153 3405.227057,635.097426 3428.669738,621.851681 3423.781035,613.250322 3394.539550,629.770585 3399.435628,638.372153"/>
    <poly id="103505670" type="building" color="255,230,230" fill="1" layer="-1.00" shape="3415.685544,445.931882 3394.891066,449.516030 3396.188530,457.012101 3416.982982,453.427959 3415.685544,445.931882"/>
    <poly id="103505674" type="building" color="255,230,230" fill="1" layer="-1.00" shape="3408.316668,677.587022 3399.283872,683.072158 3427.878843,729.894662 3436.904249,724.409337 3414.705248,688.049979 3408.316668,677.587022"/>
    <poly id="103505676" type="building" color="255,230,230" fill="1" layer="-1.00" shape="3389.148363,699.559127 3384.264054,691.280600 3356.000120,707.843472 3360.884453,716.121974 3389.148363,699.559127"/>
    <poly id="103505678" type="building" color="255,230,230" fill="1" layer="-1.00" shape="3405.288430,723.207372 3394.659216,704.352990 3389.618764,707.151101 3400.675413,725.752137 3405.288430,723.207372"/>
    <poly id="103512658" type="building" color="255,230,230" fill="1" layer="-1.00" shape="1815.007270,1398.296359 1815.173704,1400.003920 1815.400493,1402.358706 1815.522615,1403.608694 1808.441853,1404.229422 1808.411017,1403.115844 1808.363269,1401.145028 1808.308590,1398.929220 1815.007270,1398.296359"/>
    <poly id="103512662" type="building" color="255,230,230" fill="1" layer="-1.00" shape="1441.887510,1418.113643 1452.296332,1414.593917 1451.586544,1402.177118 1454.921603,1391.401631 1461.123160,1383.476225 1468.549875,1378.204251 1475.987530,1375.836506 1480.288402,1374.737841 1484.493654,1374.103438 1482.896188,1363.472027 1466.644722,1366.372618 1455.933606,1374.321995 1448.782607,1381.338370 1442.717481,1392.850667 1440.483177,1405.563578 1441.887510,1418.113643"/>
    <poly id="103512673" type="building" color="255,230,230" fill="1" layer="-1.00" shape="1808.308590,1398.929220 1801.023016,1399.977367 1800.359288,1394.704827 1799.948633,1391.654393 1809.135615,1390.488606 1814.054355,1389.854853 1814.368421,1392.935598 1815.007270,1398.296359 1808.308590,1398.929220"/>
    <poly id="103512674" type="building" color="255,230,230" fill="1" layer="-1.00" shape="1533.627600,1459.450580 1542.544446,1457.519235 1539.749914,1444.747037 1530.832697,1446.689501 1533.627600,1459.450580"/>
    <poly id="103512675" type="building" color="255,230,230" fill="1" layer="-1.00" shape="1631.442940,1321.753611 1629.998455,1311.872437 1615.840428,1313.926686 1617.284936,1323.807856 1631.442940,1321.753611"/>
    <poly id="103512677" type="forest" color="140,196,107" fill="1" layer="-4.00" shape="1704.349397,1457.100084 1705.933570,1459.097405 1708.358515,1458.473428 1710.151387,1455.748834 1721.419295,1430.728099 1732.188619,1415.393411 1694.177737,1419.071356 1701.385619,1450.831109 1704.349397,1457.100084"/>
    <poly id="103671260" type="building" color="255,230,230" fill="1" layer="-1.00" shape="2478.874000,1361.873018 2458.481708,1354.124658 2463.248792,1341.637383 2483.640770,1349.396874 2482.220440,1353.112211 2480.093268,1358.696448 2478.874000,1361.873018"/>
    <poly id="103678465" type="landuse" color="194,194,130" fill="1" layer="-3.00" shape="1815.200430,1185.362259 1820.581699,1195.880299 1820.987819,1202.780179 1817.247706,1207.523470 1812.936655,1210.557485 1808.561229,1210.985980 1801.838569,1208.892234 1798.407842,1204.355165 1798.691469,1194.495425 1805.225613,1180.750908 1810.078745,1171.069634 1814.669439,1160.156173 1820.447335,1145.675595 1826.002313,1132.656572 1824.302329,1127.818417 1856.885314,1115.157068 1872.088806,1138.103319 1885.002958,1158.785077 1871.923806,1169.929532 1866.299154,1176.571109 1864.363660,1165.717426 1863.930309,1152.497114 1858.339429,1144.642611 1851.083819,1139.872773 1841.202963,1136.933242 1833.650618,1141.043666 1826.150646,1157.171824 1824.274310,1163.910218 1817.033604,1172.569958 1815.024617,1175.610315 1815.200430,1185.362259"/>
    <poly id="103687532" type="amenity" color="237,199,199" fill="1" layer="-1.00" shape="2415.211176,1315.762807 2408.017232,1312.540693 2412.173456,1303.293851 2419.374759,1306.516204 2415.211176,1315.762807"/>
    <poly id="103958352" type="building" color="255,230,230" fill="1" layer="-1.00" shape="3390.093066,549.709059 3417.267546,594.282981 3434.582543,583.789395 3423.371935,565.394772 3414.511540,570.774154 3398.548075,544.583681 3390.093066,549.709059"/>
    <poly id="103958353" type="building" color="255,230,230" fill="1" layer="-1.00" shape="3360.983417,554.295379 3344.225248,564.172828 3374.746391,615.662892 3391.504474,605.785536 3360.983417,554.295379"/>
    <poly id="103958354" type="building" color="255,230,230" fill="1" layer="-1.00" shape="3405.803756,603.083716 3411.049137,600.091909 3402.073904,584.483714 3396.828159,587.486645 3405.803756,603.083716"/>
    <poly id="103958355" type="building" color="255,230,230" fill="1" layer="-1.00" shape="3306.483537,584.248769 3302.685077,595.587090 3307.554312,603.653653 3300.271531,608.015603 3306.453682,618.271541 3301.196048,621.418816 3307.070841,631.164240 3317.001501,625.207026 3314.102930,620.385618 3328.353436,611.851947 3319.544754,597.239454 3346.995727,580.806111 3334.645435,560.316853 3319.577386,569.336144 3322.714105,574.532341 3306.483537,584.248769"/>
    <poly id="103958356" type="building" color="255,230,230" fill="1" layer="-1.00" shape="3317.568723,638.509796 3326.334323,633.327507 3325.475602,631.886993 3329.367268,629.586096 3330.191024,630.969860 3333.212781,629.186294 3331.460729,626.237400 3337.032015,622.944429 3333.674408,617.296104 3335.496499,616.219579 3334.644770,614.790414 3338.124075,612.732220 3338.870908,613.991135 3340.745511,612.882914 3338.155714,608.527552 3340.105232,607.377225 3339.344412,606.095610 3342.943798,603.963381 3343.725597,605.279047 3347.459758,603.073253 3346.642995,601.700836 3350.437374,599.452468 3351.303089,600.904336 3353.252612,599.754013 3358.250724,608.158536 3345.158233,615.905881 3347.657466,620.102581 3349.427049,619.057757 3350.565132,620.963392 3351.944740,620.150857 3354.534520,624.506226 3353.072295,625.371746 3354.524348,627.810364 3332.209113,641.003498 3334.652399,645.109392 3326.141652,650.144062 3321.052627,641.592017 3319.830558,642.309468 3317.568723,638.509796"/>
    <poly id="103961880" type="building" color="255,230,230" fill="1" layer="-1.00" shape="3279.469274,495.799100 3284.418953,499.517892 3289.066519,493.369264 3297.536484,499.726384 3307.300589,486.798850 3293.881282,476.711796 3279.469274,495.799100"/>
    <poly id="103961881" type="building" color="255,230,230" fill="1" layer="-1.00" shape="3326.598311,447.696344 3357.325674,467.961783 3371.637580,446.267939 3375.395429,440.569308 3377.243358,437.769068 3355.629687,423.514179 3350.301669,431.610297 3341.173534,425.588064 3326.598311,447.696344"/>
    <poly id="103961882" type="building" color="255,230,230" fill="1" layer="-1.00" shape="3273.718480,439.650596 3267.159702,450.577935 3253.508958,442.430653 3260.067717,431.503298 3273.718480,439.650596"/>
    <poly id="103961883" type="building" color="255,230,230" fill="1" layer="-1.00" shape="3282.797259,533.634337 3294.815741,516.005834 3308.300512,525.193775 3312.105778,519.619012 3291.810376,505.784850 3287.703923,511.806156 3281.973243,507.895469 3272.479237,521.810787 3281.248238,527.788040 3279.017279,531.065598 3282.797259,533.634337"/>
    <poly id="103961884" type="building" color="255,230,230" fill="1" layer="-1.00" shape="3300.267946,527.695914 3293.858219,537.415244 3304.075274,544.117583 3310.492362,534.398501 3300.267946,527.695914"/>
    <poly id="103961885" type="building" color="255,230,230" fill="1" layer="-1.00" shape="3276.597430,547.599460 3273.790291,542.447220 3268.452248,545.347180 3265.443362,539.832452 3256.579544,544.633409 3262.402931,555.300599 3276.597430,547.599460"/>
    <poly id="103961887" type="building" color="255,230,230" fill="1" layer="-1.00" shape="3322.382206,461.736062 3326.155636,456.238170 3321.632178,453.222808 3317.858518,458.498172 3322.382206,461.736062"/>
    <poly id="103961888" type="parking" color="184,184,179" fill="1" layer="-1.00" shape="3294.123040,435.374826 3321.632178,453.222808 3332.780377,437.279935 3340.808938,424.797561 3301.474054,424.751028 3294.123040,435.374826"/>
    <poly id="104173145" type="building" color="255,230,230" fill="1" layer="-1.00" shape="2911.503686,2616.642324 2911.808005,2618.855026 2913.393702,2630.443513 2916.721612,2654.704729 2917.807798,2662.594502 2933.546361,2660.705487 2927.242374,2614.753288 2911.503686,2616.642324"/>
    <poly id="104174740" type="building" color="255,230,230" fill="1" layer="-1.00" shape="3171.343781,2519.677972 3167.507890,2572.660365 3160.149096,2572.124418 3158.580093,2593.803594 3169.805750,2594.607954 3171.192965,2575.392969 3176.240498,2575.765936 3180.250961,2520.319125 3171.343781,2519.677972"/>