<?xml version="1.0" encoding="UTF-8"?>

<!-- generated on 12/16/25 13:59:33 by Eclipse SUMO polyconvert Version 1.5.0
<configuration xmlns:xsi="http://www.w3.org/2001/XMLSchema-instance" xsi:noNamespaceSchemaLocation="http://sumo.dlr.de/xsd/polyconvertConfiguration.xsd">

    <input>
        <net-file value="karlskron.net.xml"/>
        <osm-files value="karlskron_raw.osm"/>
    </input>

    <output>
        <output-file value="karlskron.poly.xml"/>
    </output>

    <processing>
        <poi-layer-offset value="5"/>
    </processing>

</configuration>
-->

<additional xmlns:xsi="http://www.w3.org/2001/XMLSchema-instance" xsi:noNamespaceSchemaLocation="http://sumo.dlr.de/xsd/additional_file.xsd">
    <location netOffset="-672229.81,-5389429.42" convBoundary="-0.00,-0.00,8581.63,7911.19" origBoundary="11.339521,48.632399,11.456916,48.703143" projParameter="+proj=utm +zone=32 +ellps=WGS84 +datum=WGS84 +units=m +no_defs"/>

    <poly id="1002775598" type="building" color="255,230,230" fill="1" layer="-1.00" shape="7529.716838,3282.152744 7533.605648,3283.389826 7532.442360,3287.035287 7538.016324,3288.815859 7538.720687,3286.613211 7543.368111,3288.097104 7547.241770,3275.993658 7533.123824,3271.502981 7529.716838,3282.152744"/>
    <poly id="1002775599" type="building" color="255,230,230" fill="1" layer="-1.00" shape="7523.259789,3280.099142 7522.285064,3283.149838 7526.553540,3284.499202 7524.178529,3291.922088 7530.255899,3293.863405 7532.442360,3287.035287 7533.605648,3283.389826 7529.716838,3282.152744 7523.259789,3280.099142"/>
    <poly id="1002775600" type="building" color="255,230,230" fill="1" layer="-1.00" shape="7512.702530,3276.734956 7506.690961,3295.534588 7515.395109,3298.305403 7516.778525,3293.999426 7522.884991,3295.952792 7524.178529,3291.922088 7526.553540,3284.499202 7522.285064,3283.149838 7523.259789,3280.099142 7512.702530,3276.734956"/>
    <poly id="1002775601" type="building" color="255,230,230" fill="1" layer="-1.00" shape="7533.635663,3319.060681 7539.137304,3301.457481 7530.445405,3298.764902 7527.612783,3307.819785 7524.861557,3306.964025 7522.192924,3315.501238 7533.635663,3319.060681"/>
    <poly id="1002775602" type="building" color="255,230,230" fill="1" layer="-1.00" shape="7540.098497,3324.385522 7527.750042,3321.030717 7525.195330,3330.383772 7537.543766,3333.738572 7540.098497,3324.385522"/>
    <poly id="1002775603" type="building" color="255,230,230" fill="1" layer="-1.00" shape="7565.015583,3205.200632 7560.528764,3203.532724 7554.911452,3218.528727 7559.390541,3220.207509 7565.015583,3205.200632"/>
    <poly id="1002775604" type="building" color="255,230,230" fill="1" layer="-1.00" shape="7570.192310,3224.224914 7575.809660,3209.228925 7565.015583,3205.200632 7559.390541,3220.207509 7570.192310,3224.224914"/>
    <poly id="1002775606" type="building" color="255,230,230" fill="1" layer="-1.00" shape="7542.677477,3237.607544 7559.265710,3244.135501 7564.646387,3230.544926 7548.058118,3224.016955 7545.941386,3229.356419 7542.677477,3237.607544"/>
    <poly id="1002775607" type="building" color="255,230,230" fill="1" layer="-1.00" shape="7536.078690,3194.160750 7522.093225,3229.505354 7542.677477,3237.607544 7545.941386,3229.356419 7536.770155,3225.747288 7547.491787,3198.653841 7536.078690,3194.160750"/>
    <poly id="1002775608" type="building" color="255,230,230" fill="1" layer="-1.00" shape="7437.276161,3189.819532 7430.249165,3189.450083 7429.907554,3195.981223 7436.927178,3196.350436 7437.276161,3189.819532"/>
    <poly id="1002775609" type="building" color="255,230,230" fill="1" layer="-1.00" shape="7436.927178,3196.350436 7451.495846,3197.128078 7452.225390,3183.310714 7444.874416,3182.930882 7444.952586,3181.409125 7437.741862,3181.022664 7437.276161,3189.819532 7436.927178,3196.350436"/>
    <poly id="1002775610" type="building" color="255,230,230" fill="1" layer="-1.00" shape="7441.354746,3219.222443 7432.256466,3219.320768 7432.369136,3228.469919 7441.460038,3228.371358 7441.354746,3219.222443"/>
    <poly id="1002775611" type="building" color="255,230,230" fill="1" layer="-1.00" shape="7424.223401,3202.018795 7424.365260,3208.643284 7433.267601,3208.449668 7433.118389,3201.824944 7424.223401,3202.018795"/>
    <poly id="1002775612" type="building" color="255,230,230" fill="1" layer="-1.00" shape="7424.140264,3198.166551 7413.209544,3198.406556 7413.528415,3213.091904 7424.458751,3212.863016 7424.365260,3208.643284 7424.223401,3202.018795 7424.140264,3198.166551"/>
    <poly id="1002775613" type="building" color="255,230,230" fill="1" layer="-1.00" shape="7378.563178,3188.197329 7377.457151,3194.203352 7377.045939,3196.459897 7382.973763,3197.550689 7384.491011,3189.288122 7378.563178,3188.197329"/>
    <poly id="1002775614" type="building" color="255,230,230" fill="1" layer="-1.00" shape="7379.690077,3181.769186 7368.402661,3179.794931 7366.228307,3192.242099 7377.457151,3194.203352 7378.563178,3188.197329 7379.690077,3181.769186"/>
    <poly id="1002775615" type="building" color="255,230,230" fill="1" layer="-1.00" shape="7337.970474,3178.855149 7335.981865,3187.569943 7346.087192,3189.862365 7348.075816,3181.147574 7337.970474,3178.855149"/>
    <poly id="1002775616" type="building" color="255,230,230" fill="1" layer="-1.00" shape="7325.001156,3179.230410 7324.661201,3187.096717 7330.483163,3187.349621 7330.823126,3179.483314 7325.001156,3179.230410"/>
    <poly id="1002775617" type="building" color="255,230,230" fill="1" layer="-1.00" shape="7307.680915,3186.364691 7324.661201,3187.096717 7325.001156,3179.230410 7325.267395,3173.208655 7308.287066,3172.476628 7307.680915,3186.364691"/>
    <poly id="1002775618" type="building" color="255,230,230" fill="1" layer="-1.00" shape="7300.823282,3191.764063 7295.161178,3191.583055 7295.031234,3195.417355 7300.700341,3195.609712 7300.823282,3191.764063"/>
    <poly id="1002775619" type="building" color="255,230,230" fill="1" layer="-1.00" shape="7297.105723,3184.936269 7296.739691,3191.544509 7300.823282,3191.764063 7301.196327,3185.167173 7297.105723,3184.936269"/>
    <poly id="1002775620" type="building" color="255,230,230" fill="1" layer="-1.00" shape="7282.050907,3170.313934 7281.705832,3181.339846 7287.574108,3181.527430 7287.474626,3184.639516 7297.105723,3184.936269 7297.557324,3170.809621 7282.050907,3170.313934"/>
    <poly id="1002775621" type="building" color="255,230,230" fill="1" layer="-1.00" shape="7256.227155,3203.444923 7256.890628,3198.136799 7252.382930,3197.581070 7251.719816,3202.878080 7256.227155,3203.444923"/>
    <poly id="1002775622" type="building" color="255,230,230" fill="1" layer="-1.00" shape="7265.111579,3210.037298 7266.037960,3205.727787 7261.265398,3204.696295 7260.331658,3209.005571 7265.111579,3210.037298"/>
    <poly id="1002775623" type="building" color="255,230,230" fill="1" layer="-1.00" shape="7277.230513,3180.462480 7271.710524,3179.985639 7270.607015,3192.834216 7276.126991,3193.311057 7277.230513,3180.462480"/>
    <poly id="1002775624" type="building" color="255,230,230" fill="1" layer="-1.00" shape="7271.441319,3169.730035 7258.821121,3168.636857 7257.861769,3179.743268 7270.474578,3180.836210 7271.441319,3169.730035"/>
    <poly id="1002775625" type="building" color="255,230,230" fill="1" layer="-1.00" shape="7281.849557,3147.098766 7298.026131,3148.305682 7299.042708,3134.720015 7282.866095,3133.513097 7281.849557,3147.098766"/>
    <poly id="1002775626" type="building" color="255,230,230" fill="1" layer="-1.00" shape="7259.267230,3136.230105 7258.327834,3144.867194 7267.391756,3145.846699 7268.331165,3137.209612 7259.267230,3136.230105"/>
    <poly id="1002775627" type="building" color="255,230,230" fill="1" layer="-1.00" shape="7247.953296,3143.845816 7248.722093,3132.243773 7237.969079,3131.532973 7237.200304,3143.135017 7247.953296,3143.845816"/>
    <poly id="1002775628" type="building" color="255,230,230" fill="1" layer="-1.00" shape="7225.629386,3167.097696 7211.149638,3165.611425 7209.470888,3181.935172 7215.002762,3182.501340 7215.690633,3175.736494 7224.645838,3176.656830 7225.629386,3167.097696"/>
    <poly id="1002775630" type="building" color="255,230,230" fill="1" layer="-1.00" shape="7151.377870,3165.059247 7150.569045,3173.767271 7162.143343,3174.837922 7163.742754,3157.532552 7152.175784,3156.462134 7151.377870,3165.059247"/>
    <poly id="1002775631" type="building" color="255,230,230" fill="1" layer="-1.00" shape="7143.602754,3164.343611 7151.377870,3165.059247 7152.175784,3156.462134 7144.547916,3155.751201 7133.024763,3154.693348 7132.226879,3163.290463 7143.602754,3164.343611"/>
    <poly id="1002775632" type="building" color="255,230,230" fill="1" layer="-1.00" shape="7133.024763,3154.693348 7121.803135,3153.656275 7120.670081,3165.825237 7131.899048,3166.862543 7132.226879,3163.290463 7133.024763,3154.693348"/>
    <poly id="1002778034" type="building" color="255,230,230" fill="1" layer="-1.00" shape="6537.140001,2743.595675 6516.505124,2727.262608 6509.149510,2736.507752 6529.784370,2752.840793 6537.140001,2743.595675"/>
    <poly id="1002778035" type="building" color="255,230,230" fill="1" layer="-1.00" shape="6543.278273,2715.397858 6537.108657,2735.317039 6552.123449,2739.944899 6558.293115,2720.025734 6543.278273,2715.397858"/>
    <poly id="1002778036" type="building" color="255,230,230" fill="1" layer="-1.00" shape="6527.673169,2721.209543 6530.875764,2710.675152 6521.311931,2707.778449 6518.109001,2718.323960 6527.673169,2721.209543"/>
    <poly id="1002778037" type="building" color="255,230,230" fill="1" layer="-1.00" shape="6493.800905,2720.131612 6492.990444,2723.132055 6497.989610,2724.470472 6498.799720,2721.481145 6493.800905,2720.131612"/>
    <poly id="1002778038" type="building" color="255,230,230" fill="1" layer="-1.00" shape="6489.672876,2709.252685 6487.570598,2716.250707 6494.616644,2718.355181 6496.718931,2711.357161 6489.672876,2709.252685"/>
    <poly id="1002778039" type="building" color="255,230,230" fill="1" layer="-1.00" shape="6499.296335,2712.128979 6502.610521,2701.097463 6492.987044,2698.221163 6489.672876,2709.252685 6496.718931,2711.357161 6499.296335,2712.128979"/>
    <poly id="1002778040" type="building" color="255,230,230" fill="1" layer="-1.00" shape="6472.384304,2724.423423 6474.521109,2719.351266 6464.650079,2715.221042 6462.513282,2720.293203 6472.384304,2724.423423"/>
    <poly id="1002778041" type="building" color="255,230,230" fill="1" layer="-1.00" shape="6466.420216,2738.586015 6468.958962,2739.645863 6474.552542,2741.993373 6476.858483,2742.956810 6484.959053,2723.733190 6474.521109,2719.351266 6472.384304,2724.423423 6466.420216,2738.586015"/>
    <poly id="1002778042" type="building" color="255,230,230" fill="1" layer="-1.00" shape="6473.038211,2758.544961 6462.649810,2753.997745 6460.615533,2758.628133 6471.003926,2763.175346 6473.038211,2758.544961"/>
    <poly id="1002778043" type="building" color="255,230,230" fill="1" layer="-1.00" shape="6473.038211,2758.544961 6477.471679,2748.472491 6472.644555,2746.360755 6474.552542,2741.993373 6468.958962,2739.645863 6462.649810,2753.997745 6473.038211,2758.544961"/>
    <poly id="1002778044" type="building" color="255,230,230" fill="1" layer="-1.00" shape="6449.632527,2743.114189 6455.682814,2746.166012 6458.104236,2741.414429 6452.054298,2738.351489 6449.632527,2743.114189"/>
    <poly id="1002778045" type="building" color="255,230,230" fill="1" layer="-1.00" shape="6442.549204,2730.828435 6437.965290,2739.839188 6448.570919,2745.205453 6449.632527,2743.114189 6452.054298,2738.351489 6453.154847,2736.194709 6442.549204,2730.828435"/>
    <poly id="1002778046" type="building" color="255,230,230" fill="1" layer="-1.00" shape="6440.673120,2787.254683 6441.993467,2787.919733 6454.696975,2794.298451 6465.308851,2773.285561 6453.590136,2766.070335 6455.208098,2761.782728 6432.631299,2750.417080 6427.877871,2760.123376 6448.790327,2770.746256 6440.673120,2787.254683"/>
    <poly id="1002778047" type="building" color="255,230,230" fill="1" layer="-1.00" shape="6430.179249,2782.548408 6432.701141,2776.954447 6422.585196,2772.415971 6420.062959,2778.021051 6430.179249,2782.548408"/>
    <poly id="1002778048" type="building" color="255,230,230" fill="1" layer="-1.00" shape="6438.654443,2795.334587 6441.993467,2787.919733 6440.673120,2787.254683 6430.179249,2782.548408 6420.062959,2778.021051 6416.692739,2785.490553 6438.654443,2795.334587"/>
    <poly id="1002778049" type="building" color="255,230,230" fill="1" layer="-1.00" shape="6447.161526,2798.776082 6449.898694,2791.976259 6441.993467,2787.919733 6438.654443,2795.334587 6447.161526,2798.776082"/>
    <poly id="1002778050" type="building" color="255,230,230" fill="1" layer="-1.00" shape="6424.375568,2814.150341 6438.452930,2820.205573 6440.467971,2815.251918 6426.797646,2809.376516 6424.375568,2814.150341"/>
    <poly id="1002778051" type="building" color="255,230,230" fill="1" layer="-1.00" shape="6424.375568,2814.150341 6426.797646,2809.376516 6430.116433,2802.828829 6415.034127,2795.228541 6409.300650,2806.550302 6412.492830,2808.153824 6424.375568,2814.150341"/>
    <poly id="1002778052" type="building" color="255,230,230" fill="1" layer="-1.00" shape="6430.610581,2817.185765 6424.375568,2814.150341 6412.492830,2808.153824 6408.819320,2815.658186 6427.023705,2824.514859 6430.610581,2817.185765"/>
    <poly id="1002778053" type="building" color="255,230,230" fill="1" layer="-1.00" shape="6462.833987,2798.251112 6458.555438,2808.784679 6469.034635,2813.023259 6468.386569,2814.627014 6472.068604,2816.123772 6477.002608,2803.986694 6462.833987,2798.251112"/>
    <poly id="1002778054" type="building" color="255,230,230" fill="1" layer="-1.00" shape="6475.638364,2833.426796 6500.520471,2842.518447 6503.353669,2834.787131 6478.478541,2825.706818 6476.978098,2829.775641 6475.638364,2833.426796"/>
    <poly id="1002778055" type="building" color="255,230,230" fill="1" layer="-1.00" shape="6461.765600,2830.904871 6474.605380,2836.008504 6475.638364,2833.426796 6476.978098,2829.775641 6464.292229,2824.699153 6461.765600,2830.904871"/>
    <poly id="1002778056" type="building" color="255,230,230" fill="1" layer="-1.00" shape="6438.005222,2821.303916 6456.263941,2828.682678 6461.765600,2830.904871 6464.292229,2824.699153 6468.386569,2814.627014 6469.034635,2813.023259 6458.555438,2808.784679 6462.833987,2798.251112 6454.696975,2794.298451 6449.898694,2791.976259 6447.161526,2798.776082 6440.467971,2815.251918 6438.452930,2820.205573 6438.005222,2821.303916"/>
    <poly id="1002778057" type="building" color="255,230,230" fill="1" layer="-1.00" shape="6435.940534,2820.403797 6429.028836,2837.250983 6449.344119,2845.551835 6456.263941,2828.682678 6438.005222,2821.303916 6435.940534,2820.403797"/>
    <poly id="1002778058" type="building" color="255,230,230" fill="1" layer="-1.00" shape="6414.432585,2840.558356 6422.381530,2843.470275 6425.536023,2834.903582 6417.587067,2831.991659 6414.432585,2840.558356"/>
    <poly id="1002778059" type="building" color="255,230,230" fill="1" layer="-1.00" shape="6417.587067,2831.991659 6403.357319,2826.788322 6399.339326,2837.708493 6413.569049,2842.911821 6414.432585,2840.558356 6417.587067,2831.991659"/>
    <poly id="1002778060" type="building" color="255,230,230" fill="1" layer="-1.00" shape="6404.802365,2875.443102 6402.145377,2885.750134 6400.939267,2885.433627 6400.668937,2886.749004 6407.925913,2888.704327 6410.666847,2879.234405 6410.237249,2878.141534 6409.836105,2876.849302 6404.802365,2875.443102"/>
    <poly id="1002778061" type="building" color="255,230,230" fill="1" layer="-1.00" shape="6392.562708,2869.780168 6389.180769,2882.255941 6400.939267,2885.433627 6402.145377,2885.750134 6404.802365,2875.443102 6405.395511,2873.247924 6392.562708,2869.780168"/>
    <poly id="1002778062" type="building" color="255,230,230" fill="1" layer="-1.00" shape="6451.754530,2885.859598 6460.785049,2862.882750 6449.362434,2858.413901 6440.324594,2881.390532 6451.754530,2885.859598"/>
    <poly id="1002778063" type="building" color="255,230,230" fill="1" layer="-1.00" shape="6428.560848,2884.865854 6431.314870,2877.766162 6439.855549,2855.819533 6418.339943,2847.947819 6408.400407,2872.164159 6409.836105,2876.849302 6410.237249,2878.141534 6428.560848,2884.865854"/>
    <poly id="1002778064" type="building" color="255,230,230" fill="1" layer="-1.00" shape="6431.314870,2877.766162 6428.560848,2884.865854 6427.058810,2888.522981 6434.496952,2892.197482 6439.158837,2880.964042 6431.314870,2877.766162"/>
    <poly id="1002778065" type="building" color="255,230,230" fill="1" layer="-1.00" shape="6417.553655,2907.657484 6427.959871,2912.794869 6437.465055,2893.660383 6434.496952,2892.197482 6427.058810,2888.522981 6421.475127,2899.771612 6417.553655,2907.657484"/>
    <poly id="1002778066" type="building" color="255,230,230" fill="1" layer="-1.00" shape="6381.205866,2909.828053 6399.406299,2912.543060 6406.272522,2913.573635 6408.688200,2899.498393 6385.094375,2896.255803 6381.205866,2909.828053"/>
    <poly id="1002778067" type="building" color="255,230,230" fill="1" layer="-1.00" shape="6421.475127,2899.771612 6410.620659,2895.053891 6408.688200,2899.498393 6406.272522,2913.573635 6414.563392,2914.538275 6417.553655,2907.657484 6421.475127,2899.771612"/>
    <poly id="1002778068" type="building" color="255,230,230" fill="1" layer="-1.00" shape="6403.279854,2946.021552 6414.563392,2914.538275 6406.272522,2913.573635 6399.406299,2912.543060 6389.279653,2941.025800 6403.279854,2946.021552"/>
    <poly id="1002779339" type="building" color="255,230,230" fill="1" layer="-1.00" shape="6262.180604,2729.009849 6270.926125,2730.289107 6272.037582,2726.163370 6263.342103,2723.773118 6262.180604,2729.009849"/>
    <poly id="1002779340" type="building" color="255,230,230" fill="1" layer="-1.00" shape="6259.888502,2724.130651 6262.796613,2712.641082 6255.652238,2710.845302 6252.744141,2722.334874 6259.888502,2724.130651"/>
    <poly id="1002779341" type="building" color="255,230,230" fill="1" layer="-1.00" shape="6274.987615,2715.442821 6265.217451,2712.773644 6262.267789,2723.483083 6263.342103,2723.773118 6272.037582,2726.163370 6274.987615,2715.442821"/>
    <poly id="1002779342" type="building" color="255,230,230" fill="1" layer="-1.00" shape="6274.987615,2715.442821 6277.895542,2704.887821 6266.810165,2701.854194 6263.902258,2712.409199 6265.217451,2712.773644 6274.987615,2715.442821"/>
    <poly id="1002779343" type="building" color="255,230,230" fill="1" layer="-1.00" shape="6282.044472,2773.332277 6299.658425,2775.961539 6301.622347,2762.873231 6284.147552,2760.270641 6283.512464,2763.554827 6282.044472,2773.332277"/>
    <poly id="1002779344" type="building" color="255,230,230" fill="1" layer="-1.00" shape="6286.648025,2746.765476 6274.467775,2744.787361 6271.721100,2761.633579 6283.512464,2763.554827 6284.147552,2760.270641 6286.088634,2750.218956 6286.648025,2746.765476"/>
    <poly id="1002779345" type="building" color="255,230,230" fill="1" layer="-1.00" shape="6290.723636,2750.955944 6293.177397,2736.370091 6287.873671,2732.785886 6270.926125,2730.289107 6262.180604,2729.009849 6260.190033,2742.475596 6274.467775,2744.787361 6286.648025,2746.765476 6286.088634,2750.218956 6290.723636,2750.955944"/>
    <poly id="1002779346" type="building" color="255,230,230" fill="1" layer="-1.00" shape="6305.747053,2717.054656 6300.423995,2713.614461 6287.873671,2732.785886 6293.177397,2736.370091 6296.788966,2730.810712 6299.098112,2727.268214 6305.747053,2717.054656"/>
    <poly id="1002779347" type="building" color="255,230,230" fill="1" layer="-1.00" shape="6307.925242,2730.385886 6313.160119,2721.295599 6305.747053,2717.054656 6299.098112,2727.268214 6307.925242,2730.385886"/>
    <poly id="1002779348" type="building" color="255,230,230" fill="1" layer="-1.00" shape="6315.684895,2733.925798 6313.038211,2748.550015 6319.145091,2749.823353 6319.492630,2748.165526 6327.649980,2749.860084 6330.307794,2737.205498 6315.684895,2733.925798"/>
    <poly id="1002779349" type="building" color="255,230,230" fill="1" layer="-1.00" shape="6315.684895,2733.925798 6296.788966,2730.810712 6293.177397,2736.370091 6290.723636,2750.955944 6290.228129,2752.631321 6304.130950,2755.142637 6305.220431,2749.158194 6312.681134,2750.507936 6313.038211,2748.550015 6315.684895,2733.925798"/>
    <poly id="1002779350" type="building" color="255,230,230" fill="1" layer="-1.00" shape="6330.307794,2737.205498 6334.290278,2737.832771 6339.753600,2739.641963 6340.152929,2738.441943 6342.850429,2727.090346 6333.216274,2724.781399 6330.307794,2737.205498"/>
    <poly id="1002779351" type="building" color="255,230,230" fill="1" layer="-1.00" shape="6357.658892,2744.238811 6360.566090,2735.797732 6356.278400,2734.337424 6353.355421,2742.811381 6357.658892,2744.238811"/>
    <poly id="1002779352" type="building" color="255,230,230" fill="1" layer="-1.00" shape="6361.856499,2744.127513 6368.019281,2746.192617 6371.241297,2736.660095 6365.078858,2734.583874 6361.856499,2744.127513"/>
    <poly id="1002779353" type="building" color="255,230,230" fill="1" layer="-1.00" shape="6385.756095,2766.516139 6402.943179,2772.369771 6408.500858,2756.147040 6391.321091,2750.293627 6389.607273,2755.279130 6385.756095,2766.516139"/>
    <poly id="1002779354" type="building" color="255,230,230" fill="1" layer="-1.00" shape="6357.166293,2756.717465 6385.756095,2766.516139 6389.607273,2755.279130 6360.956094,2745.322725 6357.166293,2756.717465"/>
    <poly id="1002779355" type="building" color="255,230,230" fill="1" layer="-1.00" shape="6356.661341,2758.225649 6357.166293,2756.717465 6360.956094,2745.322725 6357.658892,2744.238811 6353.355421,2742.811381 6340.152929,2738.441943 6339.753600,2739.641963 6334.290278,2737.832771 6330.394909,2749.535693 6356.661341,2758.225649"/>
    <poly id="1002779356" type="building" color="255,230,230" fill="1" layer="-1.00" shape="6335.801075,2758.474725 6333.319477,2767.441134 6348.313403,2771.567120 6350.795024,2762.600718 6335.801075,2758.474725"/>
    <poly id="1002779357" type="building" color="255,230,230" fill="1" layer="-1.00" shape="6330.166933,2791.483971 6333.676886,2777.065219 6321.775690,2774.194676 6324.428848,2763.308948 6307.012654,2759.094903 6300.857367,2784.388527 6330.166933,2791.483971"/>
    <poly id="1002779358" type="building" color="255,230,230" fill="1" layer="-1.00" shape="6335.473089,2809.131357 6343.193709,2787.002765 6336.683527,2784.737503 6328.962931,2806.866103 6335.473089,2809.131357"/>
    <poly id="1002779359" type="building" color="255,230,230" fill="1" layer="-1.00" shape="6361.598793,2791.871420 6346.984707,2787.623961 6343.420929,2799.793577 6358.041995,2804.052376 6360.580704,2795.377064 6361.598793,2791.871420"/>
    <poly id="1002779360" type="building" color="255,230,230" fill="1" layer="-1.00" shape="6380.416138,2801.159081 6373.918826,2823.059510 6393.284659,2828.771015 6399.835708,2806.805558 6380.416138,2801.159081"/>
    <poly id="1002779361" type="building" color="255,230,230" fill="1" layer="-1.00" shape="6363.225679,2782.432810 6367.542934,2767.895108 6353.967686,2763.892059 6349.656061,2778.485578 6363.225679,2782.432810"/>
    <poly id="1002779362" type="building" color="255,230,230" fill="1" layer="-1.00" shape="6394.074738,2791.413308 6403.532622,2794.161795 6407.813099,2779.856591 6398.334516,2777.062937 6394.074738,2791.413308"/>
    <poly id="1002779363" type="building" color="255,230,230" fill="1" layer="-1.00" shape="6399.835708,2806.805558 6403.532622,2794.161795 6394.074738,2791.413308 6363.225679,2782.432810 6349.656061,2778.485578 6346.984707,2787.623961 6361.598793,2791.871420 6360.580704,2795.377064 6380.416138,2801.159081 6399.835708,2806.805558"/>
    <poly id="1002782938" type="building" color="255,230,230" fill="1" layer="-1.00" shape="6231.306874,2724.501903 6230.025283,2711.944631 6225.270399,2712.427726 6226.552000,2724.984997 6231.306874,2724.501903"/>
    <poly id="1002782939" type="building" color="255,230,230" fill="1" layer="-1.00" shape="6168.615592,2743.805130 6167.685766,2738.501959 6165.825172,2738.832266 6160.785161,2739.706887 6161.754588,2746.780319 6164.885280,2746.145452 6168.615592,2743.805130"/>
    <poly id="1002782940" type="building" color="255,230,230" fill="1" layer="-1.00" shape="6158.182713,2737.866351 6150.609207,2739.138926 6150.398383,2737.886139 6148.701552,2738.166024 6150.319850,2747.785621 6159.590174,2746.233164 6158.182713,2737.866351"/>
    <poly id="1002782941" type="building" color="255,230,230" fill="1" layer="-1.00" shape="6161.220811,2737.362051 6159.310452,2726.030924 6148.698474,2727.818918 6150.398383,2737.886139 6150.609207,2739.138926 6158.182713,2737.866351 6161.220811,2737.362051"/>
    <poly id="1002782942" type="building" color="255,230,230" fill="1" layer="-1.00" shape="6173.650955,2730.313691 6164.435222,2732.235012 6165.825172,2738.832266 6167.685766,2738.501959 6175.053857,2736.966988 6173.650955,2730.313691"/>
    <poly id="1002782943" type="building" color="255,230,230" fill="1" layer="-1.00" shape="6177.568545,2729.503561 6174.568713,2715.111599 6162.741577,2717.561897 6165.741437,2731.953852 6173.650955,2730.313691 6177.568545,2729.503561"/>
    <poly id="1002782944" type="building" color="255,230,230" fill="1" layer="-1.00" shape="6196.787376,2712.245998 6198.508951,2720.700683 6204.606965,2719.470302 6202.885400,2711.015615 6196.787376,2712.245998"/>
    <poly id="1002782945" type="building" color="255,230,230" fill="1" layer="-1.00" shape="6183.782904,2723.681891 6198.508951,2720.700683 6196.787376,2712.245998 6195.779646,2707.307499 6181.053567,2710.288715 6183.782904,2723.681891"/>
    <poly id="1002782946" type="building" color="255,230,230" fill="1" layer="-1.00" shape="6129.555879,2672.583263 6122.315517,2673.343547 6122.852708,2678.478478 6130.100075,2677.729544 6129.555879,2672.583263"/>
    <poly id="1002782947" type="building" color="255,230,230" fill="1" layer="-1.00" shape="6142.912350,2678.147541 6134.001872,2678.810267 6134.682370,2687.788156 6143.593188,2687.114317 6142.912350,2678.147541"/>
    <poly id="1002782948" type="building" color="255,230,230" fill="1" layer="-1.00" shape="6155.958128,2675.391001 6142.776667,2676.385354 6142.912350,2678.147541 6143.593188,2687.114317 6144.100914,2693.872684 6157.282334,2692.878335 6155.958128,2675.391001"/>
    <poly id="1002782949" type="building" color="255,230,230" fill="1" layer="-1.00" shape="6189.464715,2667.565736 6184.857121,2667.819904 6185.269982,2675.242813 6189.877570,2674.988646 6189.766161,2672.926831 6189.464715,2667.565736"/>
    <poly id="1002782950" type="building" color="255,230,230" fill="1" layer="-1.00" shape="6189.766161,2672.926831 6195.698188,2672.514475 6195.089955,2663.817015 6189.231555,2664.231710 6189.464715,2667.565736 6189.766161,2672.926831"/>
    <poly id="1002782951" type="building" color="255,230,230" fill="1" layer="-1.00" shape="6183.056715,2689.691701 6182.075850,2680.426115 6181.747263,2677.311575 6167.022475,2678.857642 6168.339322,2691.237998 6183.056715,2689.691701"/>
    <poly id="1002782952" type="building" color="255,230,230" fill="1" layer="-1.00" shape="6191.377093,2688.810043 6191.081748,2686.041458 6190.388525,2679.555336 6182.075850,2680.426115 6183.056715,2689.691701 6191.377093,2688.810043"/>
    <poly id="1002782953" type="building" color="255,230,230" fill="1" layer="-1.00" shape="6196.386826,2675.896348 6190.070786,2676.563524 6190.388525,2679.555336 6191.081748,2686.041458 6197.390415,2685.374050 6196.386826,2675.896348"/>
    <poly id="1002782954" type="building" color="255,230,230" fill="1" layer="-1.00" shape="6197.680864,2688.064599 6212.258017,2686.525048 6210.964010,2674.356794 6196.386826,2675.896348 6197.390415,2685.374050 6197.680864,2688.064599"/>
    <poly id="1002782955" type="building" color="255,230,230" fill="1" layer="-1.00" shape="6268.972509,2687.158941 6257.387866,2685.222051 6256.316229,2691.574220 6267.900858,2693.511109 6268.972509,2687.158941"/>
    <poly id="1002782956" type="building" color="255,230,230" fill="1" layer="-1.00" shape="6265.173387,2668.235559 6260.325745,2666.301375 6255.972819,2664.572055 6249.358944,2681.106252 6258.567205,2684.758866 6265.173387,2668.235559"/>
    <poly id="1002782957" type="building" color="255,230,230" fill="1" layer="-1.00" shape="6284.468394,2673.644004 6288.725550,2663.543547 6290.344003,2659.700947 6267.198045,2649.986791 6260.325745,2666.301375 6265.173387,2668.235559 6283.504277,2675.916409 6284.468394,2673.644004"/>
    <poly id="1002782958" type="building" color="255,230,230" fill="1" layer="-1.00" shape="6292.923200,2676.883324 6296.860610,2666.639199 6288.725550,2663.543547 6284.468394,2673.644004 6292.923200,2676.883324"/>
    <poly id="1002782959" type="building" color="255,230,230" fill="1" layer="-1.00" shape="6292.923200,2676.883324 6299.287964,2679.321918 6303.225385,2669.077798 6296.860610,2666.639199 6292.923200,2676.883324"/>
    <poly id="1002782960" type="building" color="255,230,230" fill="1" layer="-1.00" shape="6292.221709,2683.647783 6299.350865,2686.155177 6301.496873,2680.093057 6299.287964,2679.321918 6294.367710,2677.585660 6292.221709,2683.647783"/>
    <poly id="1002782961" type="building" color="255,230,230" fill="1" layer="-1.00" shape="6294.241307,2700.578733 6299.350865,2686.155177 6292.221709,2683.647783 6288.227094,2682.241349 6283.124926,2696.665148 6294.241307,2700.578733"/>
    <poly id="1002782962" type="building" color="255,230,230" fill="1" layer="-1.00" shape="6334.941403,2690.457415 6336.400336,2690.937705 6341.207343,2692.525765 6355.358215,2656.638699 6347.039020,2653.770750 6336.421270,2679.845913 6338.485433,2680.300942 6337.764122,2683.281985 6334.941403,2690.457415"/>