<?xml version="1.0" encoding="UTF-8"?>

<!-- generated on 12/16/25 13:59:48 by Eclipse SUMO duarouter Version 1.5.0
<configuration xmlns:xsi="http://www.w3.org/2001/XMLSchema-instance" xsi:noNamespaceSchemaLocation="http://sumo.dlr.de/xsd/duarouterConfiguration.xsd">

    <input>
        <net-file value="karlskron.net.xml"/>
        <route-files value="karlskron.trips.xml"/>
    </input>

    <output>
        <output-file value="karlskron.rou.xml"/>
        <alternatives-output value="karlskron.rou.alt.xml"/>
    </output>

    <report>
        <ignore-errors value="true"/>
    </report>

</configuration>
-->

<routes xmlns:xsi="http://www.w3.org/2001/XMLSchema-instance" xsi:noNamespaceSchemaLocation="http://sumo.dlr.de/xsd/routes_file.xsd">
    <vehicle id="0" depart="0.00">
        <route edges="-284278780#1 -284278780#0 284278780#0 284278780#1 -23134925#18 -23134925#17 -23134925#16 -23134925#15 -23134925#14 -23134925#13 -23134925#12 -23134925#11 -23134925#10 -23134925#9 -23134925#8 -23134925#7 -23134925#6 -23134925#5 -23134925#4 -23134925#3 -23134925#2 -23134925#1 -23134925#0 -891902984 506195411#0 506195411#1 506195411#2 506195411#3 -702057551#1 -702057551#0 -246543144#2 -246543144#1 -246543144#0 -506195370#8 -506195370#7 -506195370#6 -506195370#5 -506195370#4 -506195370#3 -506195370#2 -506195370#1 -506195370#0 -492378101#1 -395147235#2 -395147235#1 -395147235#0 -28656576#17 -28656576#16 -28656576#15 -28656576#14 -28656576#13 -28656576#12 -28656576#11 -28656576#10 -28656576#9 -28656576#8 -28656576#7 -28656576#6 -28656576#5 -28656576#4 -28656576#3 -28656576#2 -28656576#1 -28656576#0 -969802154#2 -969802154#1 -969802154#0"/>
    </vehicle>
    <vehicle id="1" depart="2.00">
        <route edges="-225712323#0 225712323#0 225712323#1 225712323#2 225712323#3 225712323#4 225712323#5 225712323#6 225712323#7 225712323#8 225712323#9 225712323#10 225712323#11 225712323#12 225712323#13 225712323#14 225712323#15 225712323#16 225712323#17 225712323#18 225712323#19 225712323#20 225712323#21 506195768#0 506195768#1 506195768#2 506195768#3 506195768#4 506195768#5 506195768#6 506195768#7 506195768#8 506195768#9 506195768#10 506195768#11 506195768#12 506195768#13 506195768#14 506195768#15 506195768#16 506195768#17 506195768#18 506195768#19 506195768#20 506195768#21 506195768#22 506195768#23 506195768#24 506195768#25 506195768#26 506195768#27 506195768#28 506195768#29 506195768#30 506195768#31 506195768#32 506195768#33 506195768#34 506195768#35 506195768#36 506195768#37 503708669#0 503708669#1 503708669#2 503708669#3 503708667 505466681 23134911#0 23134911#1 23134911#2 23134911#3 23134911#4 23134911#5 23134911#6 23134911#7 23134911#8 23134911#9 23134911#10 23134911#11 23134911#12 23134911#13 23134911#14 23134911#15 23134911#16 23134911#17 23134911#18 23134911#19 23134911#20 23134911#21 23134911#22 23134911#23 23134911#24 23134911#25 23134911#26 23134911#27 23134911#28 23134911#29 23134911#30 506105096#0 506105096#1 33506216#0 33506216#1 33506216#2 33506216#3 33506216#4 -33506216#4 -33506216#3 -33506216#2 -33506216#1 -33506216#0"/>
    </vehicle>
    <vehicle id="2" depart="4.00">
        <route edges="-356743552#2 -356743552#1 -356743552#0 -356743551 -150595865 150595865 356743551 356743552#0 356743552#1 356743552#2 356743552#3 506198806#0 506198806#1 -1054121858#1 -1054121858#0 -25794372#2 -25794372#1 -25794372#0 -498757761#1 -498757761#0 -492374835 -978570076 -506196083#3 -506196083#2 -506196083#1 -506196083#0 -506196084#8 -506196084#7 -506196084#6 -506196084#5 -506196084#4 -506196084#3 -506196084#2 -506196084#1 -506196084#0 -855650882#0 1030787516 859235478#0 859235478#1 859235478#2 1030787507 -25794371 -492378106 -511073143 -511073142 -49132052 -287200393#1 -287200393#0 -287200395 -49132053#10 -49132053#9 -49132053#8 -49132053#7 -49132053#6 -49132053#5 -49132053#4 -49132053#3 -49132053#1 -49132053#0 -1210514971#2 -1210514971#1 -1210514971#0 -113212963#17 -113212963#16 -113212963#15 -113212963#14 -113212963#13 -519215599#2 -519215599#1 -519215599#0 -511073179 -511073180 -93385407#2 -93385407#1 93385406#0 93385406#1 93385406#2 93385406#3 93385417 93385406#6 -93385406#8 -93385406#7"/>
    </vehicle>
    <vehicle id="3" depart="6.00">
        <route edges="40243973#0 40243973#1 1093949349#0 1093949349#1 1093949349#3 1093949349#4 1093949349#5 1093949349#6 1093949349#7 1093949349#8 1093949349#9 1210514971#0 1210514971#1 1210514971#2 49132053#0 49132053#1 49132053#3 49132053#4 49132053#5 49132053#6 49132053#7 49132053#8 49132053#9 49132053#10 287200395 287200393#0 287200393#1 492378099 -28656566 -28163020#5 -28163020#4 -28163020#3 -28163020#2 -28163020#1 -28163020#0 969802154#0 969802154#1 969802154#2 28656576#0 28656576#1 28656576#2 28656576#3 28656576#4 28656576#5 28656576#6 28656576#7 28656576#8 28656576#9 28656576#10 28656576#11 28656576#12 28656576#13 28656576#14 28656576#15 28656576#16 28656576#17 36999404#0 36999404#1 36999404#2 -36999405#9 -36999405#8 -36999405#7 -36999405#6 -36999405#5 -36999405#4 -36999405#3 -36999405#2"/>
    </vehicle>
    <vehicle id="4" depart="8.00">
        <route edges="29202474#8 29202474#9 29204276#0 29204276#1 29204276#2 29204276#3 29202475#0 29202475#1 29202475#2 29204278 29204632 891902991 -170350796#1 -170350796#0 -1054121918 -29202486 506198806#0"/>
    </vehicle>
    <vehicle id="5" depart="10.00">
        <route edges="506195413#0 506195413#1 -506195413#1 -506195413#0 -702057551#1 -702057551#0 -246543144#2 -246543144#1 -246543144#0 -506195370#8 -506195370#7 -506195370#6 -506195370#5 -506195370#4 -506195370#3 -506195370#2 -506195370#1 -506195370#0 -492378101#1 -395147235#2 -395147235#1 -395147235#0 -28656576#17 -28656576#16 -28656576#15 -28656576#14 -28656576#13 -28656576#12 -28656576#11 -28656576#10 -28656576#9 -28656576#8 -28656576#7 -28656576#6 -28656576#5 -28656576#4 -28656576#3 -28656576#2 -28656576#1"/>
    </vehicle>
    <vehicle id="6" depart="12.00">
        <route edges="-170350792#2 -170350792#1 -170350792#0 -355618217 -29202475#5 -29202475#4 -29202475#3 29204278 29204632 891902991 -170350796#1 -170350796#0 -1054121918 -29202486 506198806#0 506198806#1 -1054121858#1 -1054121858#0 -25794372#2 -25794372#1 -25794372#0 -498757761#1 -498757761#0 -492374835 -978570076 -506196083#3 -506196083#2 -506196083#1 -506196083#0 -506196084#8 -506196084#7 -506196084#6 -506196084#5 -506196084#4 -506196084#3 -506196084#2 -506196084#1 -506196084#0 -855650882#0 1030787516 859235478#0 859235478#1 859235478#2 1030787507 -25794371 -492378106 -511073143 -511073142 -49132052 -287200393#1 -287200393#0 -287200395 -49132053#10 -49132053#9 -49132053#8 -49132053#7 -49132053#6 -49132053#5 -49132053#4 -49132053#3 -49132053#1 -49132053#0 -1210514971#2 -1210514971#1 -1210514971#0 -1093949349#9 -1093949349#8 -1093949349#7 -1093949349#6 -1093949349#5 -1093949349#4 -1093949349#3 -1093949349#1 -1093949349#0 -40243973#1 -40243973#0 -510764230 -510764231#3 -510764231#2 -510764231#1 -510764231#0 -891902966 -891902971#1 -891902971#0 -510764284 -510764285#4 -510764285#3 -510764285#2 -510764285#1 -510764285#0 -891902977 -510764257 -40243968 -20558171#7 -20558171#6 -20558171#5 -20558171#4 -20558171#3 -20558171#2 -20558171#1"/>
    </vehicle>
    <vehicle id="7" depart="14.00">
        <route edges="506103455#35 506103455#36 -506103455#36 -506103455#35 -506103455#34 -506103455#33 -506103455#32 -506103455#31 -506103455#30 -506103455#29 -506103455#28 -506103455#27 -506103455#26 -506103455#25 -506103455#24 -506103455#23 -506103455#22 -506103455#21 -506103455#20 -506103455#19 -506103455#18 -506103455#17 -506103455#16 -506103455#15 -506103455#14 -506103455#13 -506103455#12 -506103455#11 -506103455#10 -506103455#9 -506103455#8 -506103455#7 -506103455#6 -506103455#5 -506103455#4 -506103455#3 -506103455#2 -506103455#1 -506103455#0 -506195768#37 -506195768#36 -506195768#35 -506195768#34 -506195768#33 -506195768#32 -506195768#31 -506195768#30 -506195768#29 -506195768#28 -506195768#27 -506195768#26 -506195768#25 -506195768#24 -506195768#23 -506195768#22 -506195768#21 -506195768#20 -506195768#19 -506195768#18 -506195768#17 -506195768#16 -506195768#15 -506195768#14 -506195768#13 -506195768#12 -506195768#11 -506195768#10 -506195768#9 -506195768#8 -506195768#7 -506195768#6 -506195768#5 -506195768#4 -506195768#3 -506195768#2 -506195768#1 -506195768#0 -225712323#21 -225712323#20 -225712323#19 -225712323#18 -225712323#17 -225712323#16 -225712323#15 -225712323#14 -225712323#13 -225712323#12 -225712323#11 -225712323#10 -225712323#9 -225712323#8 -225712323#7 -225712323#6 -225712323#5 -225712323#4 -225712323#3 -225712323#2 -225712323#1 -225712323#0 -506214623#7 -506214623#6 -506214623#5 -506214623#4 -506214623#3 -506214623#2 -506214623#1 -506214623#0 48398020#0 48398020#1 48398020#2 48398020#3 48398020#4 48398020#5 702080290#0 702080290#1 -506196083#3 -506196083#2 -506196083#1 -506196083#0 -506196084#8 -506196084#7 -506196084#6 -506196084#5 -506196084#4 -506196084#3 -506196084#2 -506196084#1 -506196084#0 -855650882#0 1030787516 859235478#0 859235478#1 859235478#2 1030787507 -25794371 -492378106 -511073143 -511073142 -49132052 -287200393#1 -287200393#0 -287200395 -49132053#10 -49132053#9 -49132053#8 -49132053#7 -49132053#6 -49132053#5 -49132053#4 -49132053#3 -49132053#1 -49132053#0 -1210514971#2 -1210514971#1 -1210514971#0 -1093949349#9 -1093949349#8 -1093949349#7 -1093949349#6 -1093949349#5 -1093949349#4 -1093949349#3 -1093949349#1 -1093949349#0 -40243973#1 498757889"/>
    </vehicle>
    <vehicle id="8" depart="16.00">
        <route edges="30172976#17 506196084#0 506196084#1 506196084#2 506196084#3 506196084#4 506196084#5 506196084#6 506196084#7 506196084#8 506196083#0 506196083#1 506196083#2 506196083#3 -702080290#1 -702080290#0 -48398020#5 -48398020#4 -48398020#3 -48398020#2 -48398020#1 -48398020#0 506214623#0 506214623#1 506214623#2 506214623#3 506214623#4 506214623#5 506214623#6 506214623#7 225712323#0 225712323#1 225712323#2 225712323#3 225712323#4 225712323#5 225712323#6 225712323#7 225712323#8 225712323#9 225712323#10 225712323#11 225712323#12 225712323#13 225712323#14 225712323#15 225712323#16 225712323#17 225712323#18 225712323#19 225712323#20 225712323#21 506195768#0 506195768#1 506195768#2 506195768#3 506195768#4 506195768#5 506195768#6 506195768#7 506195768#8 506195768#9 506195768#10 506195768#11 506195768#12 506195768#13 506195768#14 506195768#15 506195768#16 506195768#17 506195768#18 506195768#19 506195768#20 506195768#21 506195768#22 506195768#23 506195768#24 506195768#25 506195768#26 506195768#27 506195768#28 506195768#29 506195768#30 506195768#31 506195768#32 506195768#33 506195768#34 506195768#35 506195768#36 506195768#37 506103455#0 506103455#1 506103455#2 506103455#3 506103455#4 506103455#5 506103455#6 506103455#7 506103455#8 506103455#9 506103455#10 506103455#11 506103455#12 506103455#13 506103455#14 506103455#15 506103455#16 506103455#17 506103455#18 506103455#19 506103455#20 506103455#21 506103455#22 506103455#23 506103455#24 506103455#25 506103455#26 506103455#27 506103455#28 506103455#29 506103455#30 506103455#31 506103455#32 506103455#33 506103455#34 506103455#35 506103455#36 506195411#0 506195411#1 506195411#2 506195411#3 -702057551#1 -702057551#0 -246543144#2 -246543144#1 -246543144#0 -506195370#8 -506195370#7 -506195370#6"/>
    </vehicle>
    <vehicle id="9" depart="18.00">
        <route edges="29202483#4 -29202483#4 -29205020#0 -503708662#1 -503708662#0 -225712323#2 -225712323#1 -225712323#0 29202480#0 29202480#1 29202480#2 29202480#3 29202480#4 29202480#5 29202480#6 -29202488#8 -29202488#7 -29202488#6 -29202488#5 -29202488#4 -29202488#3 -29202488#2 -29202488#1 -29202488#0"/>
    </vehicle>
    <vehicle id="10" depart="20.00">
        <route edges="-1004525407#1 -1004525407#0 -33506220#4 -33506220#3 -33506220#2 -33506220#1 -33506220#0 -1004525406 -89479587 -60201753#22 -60201753#21 -60201753#20 -60201753#19 -60201753#18 -60201753#17 -60201753#16 -60201753#15 -60201753#14 -60201753#13 -60201753#12 -60201753#11 -60201753#10 -60201753#9 -60201753#8 -60201753#7 -60201753#6 -60201753#4 -60201753#3 -60201753#2 -60201753#1 -60201753#0 -1004525405 -506198073#6 -506198073#5 -506198073#4 -506198073#3 -506198073#2 -506198073#1 -506198073#0 -170350796#9 -170350796#8 -170350796#7 -170350796#6 -170350796#5 -170350796#4 -170350796#3 -170350796#2 -170350796#1 -170350796#0 -1054121918 -29202486 506198806#0 506198806#1 -1054121858#1 -1054121858#0 -25794372#2 -25794372#1 -25794372#0 -498757761#1 -498757761#0 -492374835 -978570076 -506196083#3 -506196083#2 -506196083#1 -506196083#0 -506196084#8 -506196084#7 -506196084#6 -506196084#5 -506196084#4 -506196084#3 -506196084#2 -506196084#1 -506196084#0 -855650882#0 1030787516 859235478#0 859235478#1 859235478#2 1030787507 -25794371 -492378106 -511073143 -511073142 -49132052 -287200393#1 -287200393#0 -287200395 20558605#0 20558605#1 20558605#2 20558605#3 20558605#4 20558605#5 20558605#6 -32591692#4 -32591692#3 -32591692#2 -32591692#1 -32591692#0 -28163025#0 28163029#0 28163029#1 28163029#2"/>
    </vehicle>
    <vehicle id="11" depart="22.00">
        <route edges="-506195370#6 -506195370#5 -506195370#4 -506195370#3 -506195370#2 -506195370#1 -506195370#0 -492378101#1 -492378103#10 -492378103#9 -492378103#8 -492378103#7 -492378103#6 -492378103#5 36999405#0 36999405#1 36999405#2 36999405#3 36999405#4 36999405#5 -36999405#5 -36999405#4 -36999405#3 -36999405#2"/>
    </vehicle>
    <vehicle id="12" depart="24.00">
        <route edges="1093949349#8 1093949349#9 1210514971#0 1210514971#1 1210514971#2 49132053#0 49132053#1 -28163033#5 -28163033#4 -28163033#3 -28163033#2 -28163033#1 -28163033#0 -28163025#1 -28163025#0 28163029#0 -287200388 -287200389#7 -287200389#6 -287200389#5 287200389#5 287200389#6 287200389#7"/>
    </vehicle>
    <vehicle id="13" depart="26.00">
        <route edges="-32591915#4 -32591915#3 -32591915#2 -32591915#1 -32591915#0 287200393#1 49132052 511073142 511073143 492378106 25794371 1030787513 978618589 1030787515 1210514968 1030787517 855650882#0 506196084#0 506196084#1 506196084#2 506196084#3 506196084#4 506196084#5 506196084#6 506196084#7 506196084#8 506196083#0 506196083#1 506196083#2 506196083#3 978570076 492374835 498757761#0 498757761#1 25794372#0 25794372#1 25794372#2 1054121858#0 1054121858#1 -506198806#1 -506198806#0 29202486 1054121918 170350796#0 170350796#1 170350796#2 170350796#3 170350796#4 170350796#5 170350796#6 170350796#7 170350796#8 170350796#9 506198073#0 506198073#1 506198073#2 506198073#3 506198073#4 506198073#5 506198073#6 1004525405 60201753#0 60201753#1 60201753#2 60201753#3 60201753#4 60201753#6 60201753#7 60201753#8 60201753#9 60201753#10 60201753#11 60201753#12 60201753#13 60201753#14 60201753#15 60201753#16 60201753#17 60201753#18 60201753#19 60201753#20 60201753#21 60201753#22 89479587 1004525406 33506220#0"/>
    </vehicle>
    <vehicle id="14" depart="28.00">
        <route edges="-36999168#3 -36999168#2 36999168#2 36999168#3 36999168#4 36999168#5 36999168#6 36999168#7 36999168#8 969802154#1 969802154#2 28656576#0 28656576#1 28656576#2 28656576#3 28656576#4 28656576#5 28656576#6 28656576#7 28656576#8 28656576#9 28656576#10 28656576#11 28656576#12 28656576#13 28656576#14 28656576#15 28656576#16 28656576#17 395147235#0 395147235#1 395147235#2 -492378103#10 -492378103#9 -492378103#8 -492378103#7 -492378103#6 -492378103#5 -492378103#4 -492378103#3 -492378103#2 -492378103#1 -492378103#0 -36999404#12 -36999404#11"/>
    </vehicle>
    <vehicle id="15" depart="30.00">
        <route edges="-246543142#0 -246543137#1 -246543137#0 506103455#15 506103455#16 506103455#17 506103455#18 506103455#19 506103455#20 506103455#21 506103455#22 506103455#23 506103455#24 506103455#25 506103455#26 506103455#27 506103455#28 506103455#29 506103455#30 506103455#31 506103455#32 506103455#33 506103455#34 506103455#35 506103455#36 891902984 23134925#0 23134925#1 23134925#2 23134925#3 23134925#4 23134925#5 23134925#6 23134925#7 23134925#8 23134925#9 23134925#10 23134925#11 23134925#12 23134925#13 23134925#14 23134925#15 23134925#16 23134925#17 23134925#18 23134925#19 23134925#20 23134925#21 23134925#22 23134925#23 23134925#24 23134925#25 23134925#26 23134925#27 23134925#28 23134925#29 23134925#30 23134925#31 -23134925#31 -23134925#30 -23134925#29 -23134925#28 -23134925#27 -23134925#26 -23134925#25 -23134925#24 -23134925#23"/>
    </vehicle>
    <vehicle id="16" depart="32.00">
        <route edges="969802160#0 969802160#1 -969802160#1 -969802160#0 -492378111#1 -492378111#0 -492378099 49132052 511073142 511073143 492378106 25794371 1030787513 978618589 1030787515 1210514968 1030787517 855650882#0 506196084#0 506196084#1 506196084#2 506196084#3 506196084#4 506196084#5 506196084#6 506196084#7 506196084#8 506196083#0 506196083#1 506196083#2 506196083#3 -702080290#1 -702080290#0 -48398020#5 -48398020#4 -48398020#3 -48398020#2 -48398020#1 -48398020#0 506214623#0 506214623#1 506214623#2 506214623#3 506214623#4 506214623#5 506214623#6 506214623#7 29202480#0 29202480#1 29202480#2 29202480#3 29202480#4 29202480#5 29202480#6 29204871#0 29204871#1 29204872#9 29204872#10 29204872#11 -29204869#4 -29204869#3 -29204869#2 -29204869#1 29204869#1 29204869#2 29204869#3 29204869#4"/>
    </vehicle>
    <vehicle id="17" depart="34.00">
        <route edges="469400552#2 469400552#3 469400552#4 469400552#5 469400552#6 469400552#7 469400552#8 469400552#9 469400552#10 469400552#11 469400552#12 1312097951#0 1312097951#1 506209179 506209180 1054121806#0 1054121806#1 1054121806#2 1054121806#3 1054121806#4 1054121806#5 1162859909 25794372#0 25794372#1 25794372#2 1054121858#0 1054121858#1 -506198806#1 -506198806#0 29202486 1054121918 170350796#0 170350796#1 170350796#2 170350796#3 170350796#4 170350796#5 170350796#6 170350796#7 170350796#8 170350796#9 -29204634 -29204629#1 -29204629#0 170350793#1 170350793#2 170350793#3 170350793#4 170350793#5 -29202472#10 -29202472#9 -29202472#8 29202472#8 29202472#9"/>
    </vehicle>
    <vehicle id="18" depart="36.00">
        <route edges="503708667 505466681 23134911#0 23134911#1 23134911#2 23134911#3 23134911#4 23134911#5 23134911#6 23134911#7 23134911#8 23134911#9 23134911#10 23134911#11 23134911#12 23134911#13 23134911#14 -23134911#14 -23134911#13 -23134911#12 -23134911#11 -23134911#10 -23134911#9 -23134911#8 -23134911#7 -23134911#6 -23134911#5 -23134911#4 -23134911#3 -23134911#2 -23134911#1 -23134911#0 -505466681 -503708667 -503708669#3 -503708669#2 -503708669#1 -503708669#0 -506195768#37 -506195768#36 -506195768#35 -506195768#34 -506195768#33 -506195768#32 -506195768#31 -506195768#30 -506195768#29 -506195768#28 -506195768#27 -506195768#26 -506195768#25 -506195768#24 -506195768#23 -506195768#22 -506195768#21 -506195768#20 -506195768#19 -506195768#18 -506195768#17 -506195768#16 -506195768#15 -506195768#14 -506195768#13 -506195768#12 -506195768#11 -506195768#10 -506195768#9 -506195768#8 -506195768#7 -506195768#6 -506195768#5 -506195768#4 -506195768#3 -506195768#2 -506195768#1 -506195768#0 -225712323#21 -225712323#20 -225712323#19 -225712323#18 -225712323#17 -225712323#16 -225712323#15 -225712323#14 -225712323#13 -225712323#12 -225712323#11 -225712323#10 -225712323#9 -225712323#8 -225712323#7 -225712323#6 -225712323#5 -225712323#4 -225712323#3 -225712323#2 -225712323#1 -225712323#0 -506214623#7 -506214623#6 -506214623#5 -506214623#4 -506214623#3 -506214623#2 -506214623#1 -506214623#0 48398020#0 48398020#1 48398020#2 48398020#3 48398020#4 48398020#5 702080290#0 702080290#1 -506196083#3 -506196083#2 -506196083#1 -506196083#0 -506196084#8 -506196084#7 -506196084#6 -506196084#5 -506196084#4 -506196084#3 -506196084#2 -506196084#1 -506196084#0 -855650882#0 1030787516 859235478#0 859235478#1 859235478#2 1030787507 -25794371 -492378106 -511073143 -511073142 -49132052 -287200393#1 -287200393#0 -287200395 -49132053#10 -49132053#9 -49132053#8 -49132053#7 -49132053#6 -49132053#5 -49132053#4 -49132053#3 -49132053#1 -49132053#0 -1210514971#2 -1210514971#1 -1210514971#0 -1093949349#9 -1093949349#8 -1093949349#7 -1093949349#6 -1093949349#5 -1093949349#4 -1093949349#3 -1093949349#1 -1093949349#0 -40243973#1 -40243973#0 -510764230"/>
    </vehicle>
    <vehicle id="19" depart="38.00">
        <route edges="-36999168#4 36999168#4 36999168#5 36999168#6 36999168#7 -395147234#1 -395147234#0 -492378108#1 -492378108#0 36999055 492378106 25794371 1030787513 978618589 1030787515 1210514968 1030787517 855650882#0 506196084#0 506196084#1 506196084#2 506196084#3 506196084#4 506196084#5 506196084#6 506196084#7 506196084#8 506196083#0 506196083#1 506196083#2 506196083#3 -702080290#1 -702080290#0 -48398020#5 -48398020#4 -48398020#3 -48398020#2 -48398020#1 -48398020#0 506214623#0 506214623#1 506214623#2 506214623#3 506214623#4 506214623#5 506214623#6 506214623#7 225712323#0 225712323#1 225712323#2 225712323#3 225712323#4 225712323#5 225712323#6 225712323#7 225712323#8 225712323#9 225712323#10 225712323#11 225712323#12 225712323#13 225712323#14 225712323#15 225712323#16 225712323#17 225712323#18 225712323#19 225712323#20 225712323#21 506195768#0 506195768#1 506195768#2 506195768#3 506195768#4 506195768#5 506195768#6 506195768#7 506195768#8 506195768#9 506195768#10 506195768#11 506195768#12 506195768#13 506195768#14 506195768#15 506195768#16 506195768#17 506195768#18 506195768#19 506195768#20 506195768#21 506195768#22 506195768#23 506195768#24 506195768#25 506195768#26 506195768#27 506195768#28 506195768#29 506195768#30 506195768#31 506195768#32 506195768#33 506195768#34 506195768#35 506195768#36 506195768#37 506103455#0"/>
    </vehicle>
    <vehicle id="20" depart="40.00">
        <route edges="-511073164 -511073165#14 -511073165#13 -511073165#12 -511073165#11 -511073165#10 -511073165#9 -511073165#8 -511073165#7 -511073165#6 -511073165#5 -511073165#4 -511073165#3 -511073165#2 -511073165#1 -511073165#0 -511073176#1 511073176#1 511073165#0 511073165#1 511073165#2 511073165#3 511073165#4 511073165#5 511073165#6 511073165#7 511073165#8 511073165#9 511073165#10 511073165#11 511073165#12 511073165#13 511073165#14 511073164 33773638#0 33773638#1 33773638#2 33773638#3 33773638#4 33773638#5 33773638#6 33773638#7 33773638#8 33773638#9 33773638#10 33773638#11 33773638#12 33773638#13 33773638#14 33773638#15 -30172976#10 -30172976#9 -30172976#8 -30172976#7 -30172976#6 -498757766"/>
    </vehicle>
    <vehicle id="21" depart="42.00">
        <route edges="170350811#0 170350811#1 170350811#2 -170350811#2 -170350811#1 -170350811#0 29202472#0 29202472#1 29202472#2 29202472#3 29202474#0 29202474#1 29202474#2 29202474#3 29202474#4 29202474#5 29202478#0 29202478#1 -29202475#5 -29202475#4 -29202475#3 29204278 29204632 891902991 -170350796#1"/>
    </vehicle>
    <vehicle id="22" depart="44.00">
        <route edges="29202472#3 29202474#0 29202474#1 29202474#2 29202474#3 29202474#4 29202474#5 29202478#0 29202478#1 -29202475#5 -29202475#4 -29202475#3 29204278 29204632 891902991 -170350796#1 -170350796#0 -1054121918 -29202486 506198806#0 506198806#1 -1054121858#1 -1054121858#0 -25794372#2 -25794372#1 -25794372#0 -498757761#1 -498757761#0 -492374835 -978570076 -702080290#1 -702080290#0 -48398020#5 -48398020#4 -48398020#3 -48398020#2 -48398020#1 -48398020#0 506214623#0 506214623#1 506214623#2 506214623#3 506214623#4 506214623#5 506214623#6 506214623#7 225712323#0 225712323#1 225712323#2 225712323#3 225712323#4 225712323#5 225712323#6 225712323#7 225712323#8 225712323#9 225712323#10 225712323#11 225712323#12 225712323#13 225712323#14 225712323#15 225712323#16 225712323#17 225712323#18 225712323#19 225712323#20 225712323#21 506195768#0 506195768#1 506195768#2 506195768#3 506195768#4 506195768#5 506195768#6 506195768#7 506195768#8 506195768#9 506195768#10 506195768#11 506195768#12 506195768#13 506195768#14 506195768#15 506195768#16 506195768#17 506195768#18 506195768#19 506195768#20 506195768#21 506195768#22 506195768#23 506195768#24 506195768#25 506195768#26 506195768#27 506195768#28 506195768#29 506195768#30 506195768#31 506195768#32 506195768#33 506195768#34 506195768#35 506195768#36 506195768#37 -506195768#37 -506195768#36 -506195768#35 -506195768#34 -506195768#33 -506195768#32 -506195768#31 -506195768#30 -506195768#29 -506195768#28 -506195768#27"/>
    </vehicle>
    <vehicle id="23" depart="46.00">
        <route edges="-506103455#29 -506103455#28 -506103455#27 -506103455#26 -506103455#25 -506103455#24 -506103455#23 -506103455#22 -506103455#21 -506103455#20 -506103455#19 -506103455#18 -506103455#17 -506103455#16 -506103455#15 -506103455#14 -506103455#13 -506103455#12 -506103455#11 -506103455#10 -506103455#9 -506103455#8 -506103455#7 -506103455#6 -506103455#5 -506103455#4 -506103455#3 -506103455#2 -506103455#1 -506103455#0 -506195768#37 -506195768#36 -506195768#35 -506195768#34 -506195768#33 -506195768#32 -506195768#31 -506195768#30 -506195768#29 -506195768#28 -506195768#27 -506195768#26 -506195768#25 -506195768#24 -506195768#23 -506195768#22 -506195768#21 -506195768#20 -506195768#19 -506195768#18 -506195768#17 -506195768#16 -506195768#15 -506195768#14 -506195768#13 -506195768#12 -506195768#11 -506195768#10 -506195768#9 -506195768#8 -506195768#7 -506195768#6 -506195768#5 -506195768#4 -506195768#3 -506195768#2 -506195768#1 -506195768#0 -225712323#21 -225712323#20 -225712323#19 -225712323#18 -225712323#17 -225712323#16 -225712323#15 -225712323#14 -225712323#13 -225712323#12 -225712323#11 -225712323#10 -225712323#9 -225712323#8 -225712323#7 -225712323#6 -225712323#5 -225712323#4 -225712323#3 -225712323#2 -225712323#1 -225712323#0 -506214623#7 -506214623#6 -506214623#5 -506214623#4 -506214623#3 -506214623#2 -506214623#1 -506214623#0 48398020#0 48398020#1 48398020#2 48398020#3 48398020#4 48398020#5 702080290#0 702080290#1 -506196083#3 -506196083#2 -506196083#1 -506196083#0 -506196084#8 -506196084#7 -506196084#6 -506196084#5 -506196084#4 -506196084#3 -506196084#2 -506196084#1 -506196084#0 -855650882#0 1030787516 859235478#0 859235478#1 859235478#2 1030787507 -25794371 -492378106 -511073143 -511073142 -49132052 -287200393#1 -287200393#0 -287200395 -49132053#10 -49132053#9 -49132053#8 -49132053#7 -49132053#6 -49132053#5 -49132053#4 -49132053#3 -49132053#1 -49132053#0 -1210514971#2 -1210514971#1 -1210514971#0 -113212963#17 -113212963#16 -113212963#15 -113212963#14"/>
    </vehicle>
    <vehicle id="24" depart="48.00">
        <route edges="-506214624#9 -506214624#8 -506214624#7 -506214624#6 -506214624#5 -506214624#4 -506214624#3 -506214624#2 -506214624#1 -506214624#0 506214624#0 506214624#1 506214624#2 506214624#3 506214624#4 506214624#5 506214624#6 506214624#7 506214624#8 506214624#9 506214624#10 506214624#11 506214624#12 506214624#13 506214624#14 506214624#15 506214624#16 -225712323#21 -225712323#20 -225712323#19 -225712323#18 -225712323#17 225712323#17"/>
    </vehicle>
    <vehicle id="25" depart="50.00">
        <route edges="506198073#1 506198073#2 506198073#3 506198073#4 506198073#5 506198073#6 1004525405 60201753#0 60201753#1 60201753#2 60201753#3 -60201753#3 -60201753#2 -60201753#1 -60201753#0 -1004525405 -506198073#6 -506198073#5 -506198073#4 -506198073#3 -506198073#2 -506198073#1 -506198073#0 -170350796#9 -170350796#8 -170350796#7 -170350796#6 -170350796#5 -170350796#4 -170350796#3 -170350796#2 -170350796#1 -170350796#0 -1054121918 -29202486 506198806#0 506198806#1 -1054121858#1 -1054121858#0 -25794372#2 -25794372#1 -25794372#0 -498757761#1 -498757761#0 -492374835 -978570076 -702080290#1 -702080290#0 -48398020#5 -48398020#4 -48398020#3 -48398020#2 -48398020#1 -48398020#0 506214623#0 506214623#1 506214623#2 506214623#3 506214623#4 506214623#5 506214623#6 506214623#7 225712323#0 225712323#1 225712323#2 225712323#3 225712323#4 225712323#5 225712323#6 225712323#7 225712323#8 225712323#9 225712323#10 225712323#11 225712323#12 225712323#13 225712323#14 225712323#15 225712323#16 225712323#17 225712323#18 225712323#19 225712323#20 225712323#21 506195768#0 506195768#1 506195768#2 506195768#3 506195768#4 506195768#5 506195768#6 506195768#7 506195768#8 506195768#9 506195768#10 506195768#11 506195768#12 506195768#13 506195768#14 506195768#15 506195768#16 506195768#17 506195768#18 506195768#19 506195768#20 506195768#21 506195768#22 506195768#23 506195768#24 506195768#25 506195768#26 506195768#27 506195768#28 506195768#29 506195768#30 506195768#31 506195768#32 506195768#33 506195768#34 506195768#35 506195768#36 506195768#37 506103455#0 506103455#1 506103455#2 506103455#3 506103455#4 506103455#5 506103455#6 506103455#7 506103455#8 506103455#9 506103455#10 506103455#11 506103455#12 506103455#13 506103455#14 506103455#15 506103455#16 506103455#17 506103455#18 506103455#19 506103455#20 506103455#21 506103455#22 506103455#23 506103455#24 506103455#25 506103455#26 506103455#27 506103455#28 506103455#29 506103455#30 506103455#31 506103455#32 506103455#33 506103455#34 506103455#35 506103455#36 506195411#0 506195411#1 506195411#2 506195411#3 -702057551#1 -702057551#0 -246543144#2 -246543144#1 -246543144#0 -506195370#8 -506195370#7 -506195370#6 -506195370#5 -506195370#4 -506195370#3 -506195370#2 -506195370#1 -506195370#0"/>
    </vehicle>
    <vehicle id="26" depart="52.00">
        <route edges="506195768#2 506195768#3 506195768#4 506195768#5 506195768#6 506195768#7 506195768#8 506195768#9 506195768#10 506195768#11 506195768#12 506195768#13 506195768#14 506195768#15 506195768#16 506195768#17 506195768#18 506195768#19 506195768#20 506195768#21 506195768#22"/>
    </vehicle>
    <vehicle id="27" depart="54.00">