<?xml version="1.0" encoding="UTF-8"?>

<!-- generated on 12/16/25 13:59:05 by Eclipse SUMO netconvert Version 1.5.0
<configuration xmlns:xsi="http://www.w3.org/2001/XMLSchema-instance" xsi:noNamespaceSchemaLocation="http://sumo.dlr.de/xsd/netconvertConfiguration.xsd">

    <input>
        <osm-files value="karlskron_raw.osm"/>
    </input>

    <output>
        <output-file value="karlskron.net.xml"/>
    </output>

    <projection>
        <proj.utm value="true"/>
    </projection>

    <tls_building>
        <tls.discard-simple value="true"/>
    </tls_building>

    <edge_removal>
        <keep-edges.by-vclass value="passenger"/>
        <remove-edges.isolated value="true"/>
    </edge_removal>

    <junctions>
        <no-turnarounds.tls value="true"/>
        <junctions.join value="true"/>
    </junctions>

    <report>
        <aggregate-warnings value="5"/>
    </report>

</configuration>
-->

<net version="1.3" junctionCornerDetail="5" limitTurnSpeed="5.50" xmlns:xsi="http://www.w3.org/2001/XMLSchema-instance" xsi:noNamespaceSchemaLocation="http://sumo.dlr.de/xsd/net_file.xsd">

    <location netOffset="-672229.81,-5389429.42" convBoundary="0.00,0.00,8581.63,7606.05" origBoundary="11.339521,48.632399,11.456916,48.700988" projParameter="+proj=utm +zone=32 +ellps=WGS84 +datum=WGS84 +units=m +no_defs"/>

    <type id="highway.bridleway" priority="1" numLanes="1" speed="2.78" allow="pedestrian" oneway="1" width="2.00"/>
    <type id="highway.bus_guideway" priority="1" numLanes="1" speed="27.78" allow="bus" oneway="1"/>
    <type id="highway.cycleway" priority="1" numLanes="1" speed="8.33" allow="bicycle" oneway="0" width="1.00"/>
    <type id="highway.footway" priority="1" numLanes="1" speed="2.78" allow="pedestrian" oneway="1" width="2.00"/>
    <type id="highway.ford" priority="1" numLanes="1" speed="2.78" allow="army" oneway="0"/>
    <type id="highway.living_street" priority="2" numLanes="1" speed="2.78" disallow="tram rail_urban rail rail_electric rail_fast ship" oneway="0"/>
    <type id="highway.motorway" priority="14" numLanes="2" speed="39.44" allow="private emergency authority army vip passenger hov taxi bus coach delivery truck trailer motorcycle evehicle custom1 custom2" oneway="1"/>
    <type id="highway.motorway_link" priority="9" numLanes="1" speed="22.22" allow="private emergency authority army vip passenger hov taxi bus coach delivery truck trailer motorcycle evehicle custom1 custom2" oneway="1"/>
    <type id="highway.path" priority="1" numLanes="1" speed="2.78" allow="pedestrian bicycle" oneway="1" width="2.00"/>
    <type id="highway.pedestrian" priority="1" numLanes="1" speed="2.78" allow="pedestrian" oneway="1" width="2.00"/>
    <type id="highway.primary" priority="12" numLanes="2" speed="27.78" disallow="tram rail_urban rail rail_electric rail_fast ship" oneway="0"/>
    <type id="highway.primary_link" priority="7" numLanes="1" speed="22.22" disallow="tram rail_urban rail rail_electric rail_fast ship" oneway="0"/>
    <type id="highway.raceway" priority="15" numLanes="2" speed="83.33" allow="vip" oneway="0"/>
    <type id="highway.residential" priority="3" numLanes="1" speed="13.89" disallow="tram rail_urban rail rail_electric rail_fast ship" oneway="0"/>
    <type id="highway.secondary" priority="11" numLanes="1" speed="27.78" disallow="tram rail_urban rail rail_electric rail_fast ship" oneway="0"/>
    <type id="highway.secondary_link" priority="6" numLanes="1" speed="22.22" disallow="tram rail_urban rail rail_electric rail_fast ship" oneway="0"/>
    <type id="highway.service" priority="1" numLanes="1" speed="5.56" allow="pedestrian delivery bicycle" oneway="0"/>
    <type id="highway.stairs" priority="1" numLanes="1" speed="1.39" allow="pedestrian" oneway="1" width="2.00"/>
    <type id="highway.step" priority="1" numLanes="1" speed="1.39" allow="pedestrian" oneway="1" width="2.00"/>
    <type id="highway.steps" priority="1" numLanes="1" speed="1.39" allow="pedestrian" oneway="1" width="2.00"/>
    <type id="highway.tertiary" priority="10" numLanes="1" speed="22.22" disallow="tram rail_urban rail rail_electric rail_fast ship" oneway="0"/>
    <type id="highway.tertiary_link" priority="5" numLanes="1" speed="22.22" disallow="tram rail_urban rail rail_electric rail_fast ship" oneway="0"/>
    <type id="highway.track" priority="1" numLanes="1" speed="5.56" disallow="tram rail_urban rail rail_electric rail_fast ship" oneway="0"/>
    <type id="highway.trunk" priority="13" numLanes="2" speed="27.78" disallow="pedestrian bicycle tram rail_urban rail rail_electric rail_fast ship" oneway="0"/>
    <type id="highway.trunk_link" priority="8" numLanes="1" speed="22.22" disallow="pedestrian bicycle tram rail_urban rail rail_electric rail_fast ship" oneway="0"/>
    <type id="highway.unclassified" priority="4" numLanes="1" speed="13.89" disallow="tram rail_urban rail rail_electric rail_fast ship" oneway="0"/>
    <type id="highway.unsurfaced" priority="1" numLanes="1" speed="8.33" disallow="tram rail_urban rail rail_electric rail_fast ship" oneway="0"/>
    <type id="railway.highspeed" priority="21" numLanes="1" speed="69.44" allow="rail_fast" oneway="1"/>
    <type id="railway.light_rail" priority="19" numLanes="1" speed="27.78" allow="rail_urban" oneway="1"/>
    <type id="railway.preserved" priority="16" numLanes="1" speed="27.78" allow="rail" oneway="1"/>
    <type id="railway.rail" priority="20" numLanes="1" speed="44.44" allow="rail" oneway="1"/>
    <type id="railway.subway" priority="18" numLanes="1" speed="27.78" allow="rail_urban" oneway="1"/>
    <type id="railway.tram" priority="17" numLanes="1" speed="13.89" allow="tram" oneway="1"/>

    <edge id=":10015379845_0" function="internal">
        <lane id=":10015379845_0_0" index="0" disallow="tram rail_urban rail rail_electric rail_fast ship" speed="13.89" length="0.68" shape="8329.20,6347.26 8329.08,6347.42 8329.01,6347.54 8328.96,6347.67 8328.91,6347.86"/>
    </edge>
    <edge id=":10015379845_1" function="internal">
        <lane id=":10015379845_1_0" index="0" disallow="tram rail_urban rail rail_electric rail_fast ship" speed="8.66" length="2.03" shape="8325.81,6347.08 8325.96,6346.50 8326.11,6346.11 8326.32,6345.76 8326.69,6345.28"/>
    </edge>
    <edge id=":10015379848_0" function="internal">
        <lane id=":10015379848_0_0" index="0" disallow="tram rail_urban rail rail_electric rail_fast ship" speed="13.89" length="0.94" shape="8370.18,6346.35 8369.93,6346.23 8369.76,6346.14 8369.60,6346.04 8369.38,6345.88"/>
    </edge>
    <edge id=":10015379848_1" function="internal">
        <lane id=":10015379848_1_0" index="0" disallow="tram rail_urban rail rail_electric rail_fast ship" speed="13.89" length="0.31" shape="8371.26,6343.29 8371.34,6343.35 8371.39,6343.38 8371.45,6343.41 8371.53,6343.45"/>
    </edge>
    <edge id=":10015379851_0" function="internal">
        <lane id=":10015379851_0_0" index="0" disallow="tram rail_urban rail rail_electric rail_fast ship" speed="3.65" length="4.67" shape="8389.14,6337.19 8389.82,6335.92 8390.57,6335.44 8391.41,6335.76 8392.33,6336.87"/>
    </edge>
    <edge id=":10030966357_0" function="internal">
        <lane id=":10030966357_0_0" index="0" disallow="tram rail_urban rail rail_electric rail_fast ship" speed="13.89" length="4.11" shape="8342.67,6602.55 8346.72,6601.92"/>
    </edge>
    <edge id=":10030966357_1" function="internal">
        <lane id=":10030966357_1_0" index="0" disallow="tram rail_urban rail rail_electric rail_fast ship" speed="13.89" length="2.59" shape="8344.72,6598.99 8342.17,6599.39"/>
    </edge>
    <edge id=":10154112375_0" function="internal">
        <lane id=":10154112375_0_0" index="0" disallow="tram rail_urban rail rail_electric rail_fast ship" speed="13.89" length="0.30" shape="4642.95,2330.21 4642.75,2330.44"/>
    </edge>
    <edge id=":10154112375_1" function="internal">
        <lane id=":10154112375_1_0" index="0" disallow="tram rail_urban rail rail_electric rail_fast ship" speed="13.89" length="0.30" shape="4640.30,2328.39 4640.49,2328.16"/>
    </edge>
    <edge id=":1037632124_0" function="internal">
        <lane id=":1037632124_0_0" index="0" disallow="tram rail_urban rail rail_electric rail_fast ship" speed="13.89" length="0.30" shape="8084.41,7518.33 8084.18,7518.13"/>
    </edge>
    <edge id=":1037632124_1" function="internal">
        <lane id=":1037632124_1_0" index="0" disallow="tram rail_urban rail rail_electric rail_fast ship" speed="13.89" length="0.29" shape="8086.29,7515.72 8086.52,7515.91"/>
    </edge>
    <edge id=":10815010849_0" function="internal">
        <lane id=":10815010849_0_0" index="0" disallow="tram rail_urban rail rail_electric rail_fast ship" speed="27.78" length="0.28" shape="3101.77,5874.99 3101.51,5875.10"/>
    </edge>
    <edge id=":10815010849_1" function="internal">
        <lane id=":10815010849_1_0" index="0" disallow="tram rail_urban rail rail_electric rail_fast ship" speed="27.78" length="0.31" shape="3100.33,5872.12 3100.62,5872.01"/>
    </edge>
    <edge id=":10815010850_0" function="internal">
        <lane id=":10815010850_0_0" index="0" disallow="tram rail_urban rail rail_electric rail_fast ship" speed="23.61" length="0.31" shape="3329.29,5785.32 3329.00,5785.43"/>
    </edge>
    <edge id=":10815010850_1" function="internal">
        <lane id=":10815010850_1_0" index="0" disallow="tram rail_urban rail rail_electric rail_fast ship" speed="23.61" length="0.29" shape="3327.84,5782.45 3328.11,5782.34"/>
    </edge>
    <edge id=":10815010851_0" function="internal">
        <lane id=":10815010851_0_0" index="0" disallow="tram rail_urban rail rail_electric rail_fast ship" speed="27.78" length="0.30" shape="3400.12,5757.20 3399.84,5757.31"/>
    </edge>
    <edge id=":10815010851_1" function="internal">
        <lane id=":10815010851_1_0" index="0" disallow="tram rail_urban rail rail_electric rail_fast ship" speed="27.78" length="0.30" shape="3398.66,5754.33 3398.94,5754.22"/>
    </edge>
    <edge id=":10815010852_0" function="internal">
        <lane id=":10815010852_0_0" index="0" disallow="tram rail_urban rail rail_electric rail_fast ship" speed="13.89" length="0.31" shape="4914.14,5167.13 4913.85,5167.24"/>
    </edge>
    <edge id=":10815010852_1" function="internal">
        <lane id=":10815010852_1_0" index="0" disallow="tram rail_urban rail rail_electric rail_fast ship" speed="13.89" length="0.27" shape="4912.76,5164.23 4913.01,5164.14"/>
    </edge>
    <edge id=":1082819445_0" function="internal">
        <lane id=":1082819445_0_0" index="0" disallow="tram rail_urban rail rail_electric rail_fast ship" speed="8.33" length="0.31" shape="2625.90,3110.69 2625.66,3110.90"/>
    </edge>
    <edge id=":1082819445_1" function="internal">
        <lane id=":1082819445_1_0" index="0" disallow="tram rail_urban rail rail_electric rail_fast ship" speed="8.33" length="0.25" shape="2623.59,3108.46 2623.78,3108.30"/>
    </edge>
    <edge id=":1082819448_0" function="internal">
        <lane id=":1082819448_0_0" index="0" disallow="tram rail_urban rail rail_electric rail_fast ship" speed="8.33" length="13.84" shape="2811.50,3268.31 2808.44,3270.15 2805.68,3272.04 2803.02,3274.09 2800.28,3276.37"/>
    </edge>
    <edge id=":1082819448_1" function="internal">
        <lane id=":1082819448_1_0" index="0" disallow="tram rail_urban rail rail_electric rail_fast ship" speed="8.33" length="14.56" shape="2811.50,3268.31 2808.36,3269.48 2805.04,3269.58 2801.52,3268.60 2797.81,3266.55"/>
    </edge>
    <edge id=":1082819448_2" function="internal">
        <lane id=":1082819448_2_0" index="0" disallow="tram rail_urban rail rail_electric rail_fast ship" speed="3.65" length="4.67" shape="2811.50,3268.31 2810.06,3268.20 2809.32,3267.70 2809.28,3266.81 2809.93,3265.52"/>
    </edge>
    <edge id=":1082819448_3" function="internal">
        <lane id=":1082819448_3_0" index="0" disallow="tram rail_urban rail rail_electric rail_fast ship" speed="8.33" length="11.01" shape="2799.61,3263.90 2802.50,3265.53 2805.18,3266.34 2807.66,3266.34 2809.93,3265.52"/>
    </edge>
    <edge id=":1082819448_4" function="internal">
        <lane id=":1082819448_4_0" index="0" disallow="tram rail_urban rail rail_electric rail_fast ship" speed="7.60" length="15.34" shape="2799.61,3263.90 2802.85,3266.86 2804.04,3269.92 2803.18,3273.09 2800.28,3276.37"/>
    </edge>
    <edge id=":1082819448_5" function="internal">
        <lane id=":1082819448_5_0" index="0" disallow="tram rail_urban rail rail_electric rail_fast ship" speed="3.65" length="4.67" shape="2799.61,3263.90 2800.16,3265.24 2800.04,3266.12 2799.26,3266.56 2797.81,3266.55"/>
    </edge>
    <edge id=":1082819448_6" function="internal">
        <lane id=":1082819448_6_0" index="0" disallow="tram rail_urban rail rail_electric rail_fast ship" speed="6.00" length="9.08" shape="2798.21,3273.93 2799.93,3271.99 2800.44,3270.11 2799.73,3268.30 2797.81,3266.55"/>
    </edge>
    <edge id=":1082819448_7" function="internal">
        <lane id=":1082819448_7_0" index="0" disallow="tram rail_urban rail rail_electric rail_fast ship" speed="8.33" length="14.45" shape="2798.21,3273.93 2801.03,3271.59 2803.86,3269.43 2806.80,3267.41 2809.93,3265.52"/>
    </edge>
    <edge id=":1082819448_8" function="internal">
        <lane id=":1082819448_8_0" index="0" disallow="tram rail_urban rail rail_electric rail_fast ship" speed="3.65" length="4.67" shape="2798.21,3273.93 2799.64,3273.76 2800.46,3274.11 2800.67,3274.98 2800.28,3276.37"/>
    </edge>
    <edge id=":1082819450_0" function="internal">
        <lane id=":1082819450_0_0" index="0" disallow="tram rail_urban rail rail_electric rail_fast ship" speed="6.51" length="9.09" shape="2804.55,3394.67 2803.51,3392.42 2801.99,3391.05 2800.00,3390.55 2797.52,3390.94"/>
    </edge>
    <edge id=":1082819450_1" function="internal">
        <lane id=":1082819450_1_0" index="0" disallow="tram rail_urban rail rail_electric rail_fast ship" speed="8.33" length="14.45" shape="2804.55,3394.67 2800.21,3380.88"/>
    </edge>
    <edge id=":1082819450_2" function="internal">
        <lane id=":1082819450_2_0" index="0" disallow="tram rail_urban rail rail_electric rail_fast ship" speed="3.65" length="4.67" shape="2804.55,3394.67 2804.98,3393.29 2805.63,3392.68 2806.51,3392.83 2807.62,3393.75"/>
    </edge>
    <edge id=":1082819450_3" function="internal">
        <lane id=":1082819450_3_0" index="0" disallow="tram rail_urban rail rail_electric rail_fast ship" speed="8.33" length="14.55" shape="2803.25,3379.87 2807.62,3393.75"/>
    </edge>
    <edge id=":1082819450_4" function="internal">
        <lane id=":1082819450_4_0" index="0" disallow="tram rail_urban rail rail_electric rail_fast ship" speed="7.95" length="14.29" shape="2803.25,3379.87 2803.95,3383.74 2803.22,3386.87 2801.08,3389.27 2797.52,3390.94"/>
    </edge>
    <edge id=":1082819450_5" function="internal">
        <lane id=":1082819450_5_0" index="0" disallow="tram rail_urban rail rail_electric rail_fast ship" speed="3.65" length="4.67" shape="2803.25,3379.87 2802.87,3381.26 2802.24,3381.90 2801.35,3381.77 2800.21,3380.88"/>
    </edge>
    <edge id=":1082819450_6" function="internal">
        <lane id=":1082819450_6_0" index="0" disallow="tram rail_urban rail rail_electric rail_fast ship" speed="6.45" length="9.03" shape="2796.59,3387.87 2798.84,3386.82 2800.20,3385.31 2800.65,3383.33 2800.21,3380.88"/>
    </edge>
    <edge id=":1082819450_7" function="internal">
        <lane id=":1082819450_7_0" index="0" disallow="tram rail_urban rail rail_electric rail_fast ship" speed="8.01" length="14.27" shape="2796.59,3387.87 2800.47,3387.27 2803.60,3388.05 2805.99,3390.21 2807.62,3393.75"/>
    </edge>
    <edge id=":1082819450_8" function="internal">
        <lane id=":1082819450_8_0" index="0" disallow="tram rail_urban rail rail_electric rail_fast ship" speed="3.65" length="4.67" shape="2796.59,3387.87 2797.97,3388.29 2798.59,3388.94 2798.44,3389.82 2797.52,3390.94"/>
    </edge>
    <edge id=":1082819451_0" function="internal">
        <lane id=":1082819451_0_0" index="0" disallow="tram rail_urban rail rail_electric rail_fast ship" speed="5.52" length="9.52" shape="2871.47,3299.30 2869.11,3297.49 2867.35,3297.25 2866.18,3298.59 2865.60,3301.51"/>
    </edge>
    <edge id=":1082819451_1" function="internal">
        <lane id=":1082819451_1_0" index="0" disallow="tram rail_urban rail rail_electric rail_fast ship" speed="8.33" length="16.35" shape="2871.47,3299.30 2859.91,3287.74"/>
    </edge>
    <edge id=":1082819451_2" function="internal">
        <lane id=":1082819451_2_0" index="0" disallow="tram rail_urban rail rail_electric rail_fast ship" speed="3.65" length="4.67" shape="2871.47,3299.30 2871.17,3297.89 2871.45,3297.03 2872.29,3296.74 2873.71,3297.01"/>
    </edge>
    <edge id=":1082819451_3" function="internal">
        <lane id=":1082819451_3_0" index="0" disallow="tram rail_urban rail rail_electric rail_fast ship" speed="8.33" length="16.25" shape="2862.22,3285.52 2873.71,3297.01"/>
    </edge>
    <edge id=":1082819451_4" function="internal">
        <lane id=":1082819451_4_0" index="0" disallow="tram rail_urban rail rail_electric rail_fast ship" speed="8.33" length="16.76" shape="2862.22,3285.52 2864.02,3288.18 2865.19,3291.74 2865.71,3296.18 2865.60,3301.51"/>
    </edge>
    <edge id=":1082819451_5" function="internal">
        <lane id=":1082819451_5_0" index="0" disallow="tram rail_urban rail rail_electric rail_fast ship" speed="3.65" length="4.67" shape="2862.22,3285.52 2862.47,3286.94 2862.17,3287.78 2861.32,3288.05 2859.91,3287.74"/>
    </edge>
    <edge id=":1082819451_6" function="internal">
        <lane id=":1082819451_6_0" index="0" disallow="tram rail_urban rail rail_electric rail_fast ship" speed="8.33" length="14.10" shape="2862.41,3301.28 2862.54,3296.63 2862.16,3292.82 2861.29,3289.86 2859.91,3287.74"/>
    </edge>
    <edge id=":1082819451_7" function="internal">
        <lane id=":1082819451_7_0" index="0" disallow="tram rail_urban rail rail_electric rail_fast ship" speed="7.38" length="18.31" shape="2862.41,3301.28 2863.52,3295.66 2865.77,3293.07 2869.17,3293.52 2873.71,3297.01"/>
    </edge>
    <edge id=":1082819451_8" function="internal">
        <lane id=":1082819451_8_0" index="0" disallow="tram rail_urban rail rail_electric rail_fast ship" speed="3.65" length="4.67" shape="2862.41,3301.28 2863.30,3300.14 2864.13,3299.80 2864.89,3300.26 2865.60,3301.51"/>
    </edge>
    <edge id=":1082819452_0" function="internal">
        <lane id=":1082819452_0_0" index="0" disallow="tram rail_urban rail rail_electric rail_fast ship" speed="6.08" length="7.65" shape="2746.36,3478.19 2744.29,3478.50 2742.61,3478.08 2741.31,3476.93 2740.41,3475.04"/>
    </edge>
    <edge id=":1082819452_1" function="internal">
        <lane id=":1082819452_1_0" index="0" disallow="tram rail_urban rail rail_electric rail_fast ship" speed="3.91" length="2.55" shape="2743.46,3474.08 2743.76,3474.70 2744.19,3475.09 2744.75,3475.23 2745.44,3475.12"/>
    </edge>
    <edge id=":1082819465_0" function="internal">
        <lane id=":1082819465_0_0" index="0" disallow="tram rail_urban rail rail_electric rail_fast ship" speed="3.65" length="4.67" shape="2724.69,3204.43 2724.40,3203.02 2724.68,3202.17 2725.52,3201.88 2726.94,3202.16"/>
    </edge>
    <edge id=":1082819471_0" function="internal">
        <lane id=":1082819471_0_0" index="0" disallow="tram rail_urban rail rail_electric rail_fast ship" speed="3.65" length="4.67" shape="3354.91,3640.20 3354.75,3641.63 3354.22,3642.35 3353.33,3642.36 3352.07,3641.66"/>
    </edge>
    <edge id=":1082819484_0" function="internal">
        <lane id=":1082819484_0_0" index="0" disallow="tram rail_urban rail rail_electric rail_fast ship" speed="8.33" length="14.21" shape="2712.92,3389.38 2708.29,3375.94"/>
    </edge>
    <edge id=":1082819484_1" function="internal">
        <lane id=":1082819484_1_0" index="0" disallow="tram rail_urban rail rail_electric rail_fast ship" speed="8.04" length="14.10" shape="2712.92,3389.38 2712.25,3385.59 2712.94,3382.47 2715.00,3380.03 2718.43,3378.25"/>
    </edge>
    <edge id=":1082819484_2" function="internal">
        <lane id=":1082819484_2_0" index="0" disallow="tram rail_urban rail rail_electric rail_fast ship" speed="3.65" length="4.67" shape="2712.92,3389.38 2713.30,3387.99 2713.94,3387.36 2714.82,3387.49 2715.96,3388.38"/>
    </edge>
    <edge id=":1082819484_3" function="internal">
        <lane id=":1082819484_3_0" index="0" disallow="tram rail_urban rail rail_electric rail_fast ship" speed="6.55" length="9.01" shape="2719.49,3381.26 2717.29,3382.40 2715.97,3383.97 2715.53,3385.96 2715.96,3388.38"/>
    </edge>
    <edge id=":1082819484_4" function="internal">
        <lane id=":1082819484_4_0" index="0" disallow="tram rail_urban rail rail_electric rail_fast ship" speed="8.00" length="14.12" shape="2719.49,3381.26 2715.70,3382.02 2712.57,3381.38 2710.10,3379.36 2708.29,3375.94"/>
    </edge>
    <edge id=":1082819484_5" function="internal">
        <lane id=":1082819484_5_0" index="0" disallow="tram rail_urban rail rail_electric rail_fast ship" speed="3.65" length="4.67" shape="2719.49,3381.26 2718.09,3380.91 2717.45,3380.29 2717.56,3379.40 2718.43,3378.25"/>
    </edge>
    <edge id=":1082819484_6" function="internal">
        <lane id=":1082819484_6_0" index="0" disallow="tram rail_urban rail rail_electric rail_fast ship" speed="6.51" length="8.98" shape="2711.30,3374.86 2712.45,3377.03 2714.02,3378.32 2716.01,3378.73 2718.43,3378.25"/>
    </edge>
    <edge id=":1082819484_7" function="internal">
        <lane id=":1082819484_7_0" index="0" disallow="tram rail_urban rail rail_electric rail_fast ship" speed="8.33" length="14.30" shape="2711.30,3374.86 2715.96,3388.38"/>
    </edge>
    <edge id=":1082819484_8" function="internal">
        <lane id=":1082819484_8_0" index="0" disallow="tram rail_urban rail rail_electric rail_fast ship" speed="3.65" length="4.67" shape="2711.30,3374.86 2710.95,3376.26 2710.34,3376.91 2709.45,3376.80 2708.29,3375.94"/>
    </edge>
    <edge id=":1082819495_0" function="internal">
        <lane id=":1082819495_0_0" index="0" disallow="tram rail_urban rail rail_electric rail_fast ship" speed="8.33" length="0.49" shape="2627.55,3109.33 2627.41,3109.40 2627.33,3109.44 2627.24,3109.50 2627.13,3109.60"/>
    </edge>
    <edge id=":1082819495_1" function="internal">
        <lane id=":1082819495_1_0" index="0" disallow="tram rail_urban rail rail_electric rail_fast ship" speed="8.33" length="1.48" shape="2625.01,3107.20 2625.35,3106.91 2625.59,3106.73 2625.85,3106.59 2626.25,3106.41"/>
    </edge>
    <edge id=":1082819503_0" function="internal">
        <lane id=":1082819503_0_0" index="0" disallow="tram rail_urban rail rail_electric rail_fast ship" speed="5.80" length="9.14" shape="2775.33,3305.19 2774.24,3302.74 2772.75,3301.58 2770.86,3301.71 2768.58,3303.12"/>
    </edge>
    <edge id=":1082819503_1" function="internal">
        <lane id=":1082819503_1_0" index="0" disallow="tram rail_urban rail rail_electric rail_fast ship" speed="8.33" length="15.22" shape="2775.33,3305.19 2774.46,3300.74 2774.62,3296.90 2775.79,3293.68 2777.99,3291.07"/>
    </edge>
    <edge id=":1082819503_2" function="internal">
        <lane id=":1082819503_2_0" index="0" disallow="tram rail_urban rail rail_electric rail_fast ship" speed="3.65" length="4.67" shape="2775.33,3305.19 2775.77,3303.82 2776.42,3303.21 2777.30,3303.37 2778.41,3304.30"/>
    </edge>
    <edge id=":1082819503_3" function="internal">
        <lane id=":1082819503_3_0" index="0" disallow="tram rail_urban rail rail_electric rail_fast ship" speed="8.33" length="11.54" shape="2780.06,3293.51 2778.52,3295.41 2777.73,3297.84 2777.69,3300.80 2778.41,3304.30"/>
    </edge>
    <edge id=":1082819503_4" function="internal">
        <lane id=":1082819503_4_0" index="0" disallow="tram rail_urban rail rail_electric rail_fast ship" speed="8.33" length="14.97" shape="2780.06,3293.51 2768.58,3303.12"/>
    </edge>
    <edge id=":1082819503_5" function="internal">
        <lane id=":1082819503_5_0" index="0" disallow="tram rail_urban rail rail_electric rail_fast ship" speed="3.65" length="4.67" shape="2780.06,3293.51 2778.63,3293.68 2777.81,3293.32 2777.59,3292.46 2777.99,3291.07"/>
    </edge>
    <edge id=":1082819503_6" function="internal">
        <lane id=":1082819503_6_0" index="0" disallow="tram rail_urban rail rail_electric rail_fast ship" speed="8.33" length="14.94" shape="2766.54,3300.66 2777.99,3291.07"/>
    </edge>
    <edge id=":1082819503_7" function="internal">
        <lane id=":1082819503_7_0" index="0" disallow="tram rail_urban rail rail_electric rail_fast ship" speed="7.47" length="16.08" shape="2766.54,3300.66 2770.55,3298.17 2773.86,3297.95 2776.48,3300.00 2778.41,3304.30"/>
    </edge>
    <edge id=":1082819503_8" function="internal">
        <lane id=":1082819503_8_0" index="0" disallow="tram rail_urban rail rail_electric rail_fast ship" speed="3.65" length="4.67" shape="2766.54,3300.66 2767.97,3300.51 2768.79,3300.87 2768.99,3301.74 2768.58,3303.12"/>
    </edge>
    <edge id=":1082819524_0" function="internal">
        <lane id=":1082819524_0_0" index="0" disallow="tram rail_urban rail rail_electric rail_fast ship" speed="3.90" length="2.58" shape="2728.22,3364.79 2727.89,3364.16 2727.45,3363.79 2726.87,3363.67 2726.18,3363.81"/>
    </edge>
    <edge id=":1082819524_1" function="internal">
        <lane id=":1082819524_1_0" index="0" disallow="tram rail_urban rail rail_electric rail_fast ship" speed="6.08" length="7.75" shape="2725.11,3360.80 2727.19,3360.38 2728.91,3360.73 2730.26,3361.84 2731.24,3363.73"/>
    </edge>
    <edge id=":1082819530_0" function="internal">
        <lane id=":1082819530_0_0" index="0" disallow="tram rail_urban rail rail_electric rail_fast ship" speed="8.33" length="0.36" shape="2619.71,3115.96 2619.63,3116.03 2619.58,3116.08 2619.53,3116.14 2619.46,3116.22"/>
    </edge>
    <edge id=":1082819530_1" function="internal">
        <lane id=":1082819530_1_0" index="0" disallow="tram rail_urban rail rail_electric rail_fast ship" speed="8.33" length="1.09" shape="2616.90,3114.31 2617.09,3114.05 2617.23,3113.89 2617.39,3113.73 2617.64,3113.52"/>
    </edge>
    <edge id=":1082819532_0" function="internal">
        <lane id=":1082819532_0_0" index="0" disallow="tram rail_urban rail rail_electric rail_fast ship" speed="8.33" length="14.35" shape="2722.77,3419.54 2718.36,3405.88"/>
    </edge>
    <edge id=":1082819532_1" function="internal">
        <lane id=":1082819532_1_0" index="0" disallow="tram rail_urban rail rail_electric rail_fast ship" speed="7.98" length="14.24" shape="2722.77,3419.54 2722.13,3415.68 2722.88,3412.56 2725.03,3410.17 2728.57,3408.52"/>
    </edge>
    <edge id=":1082819532_2" function="internal">
        <lane id=":1082819532_2_0" index="0" disallow="tram rail_urban rail rail_electric rail_fast ship" speed="3.65" length="4.67" shape="2722.77,3419.54 2723.17,3418.15 2723.81,3417.53 2724.70,3417.67 2725.82,3418.57"/>
    </edge>
    <edge id=":1082819532_3" function="internal">
        <lane id=":1082819532_3_0" index="0" disallow="tram rail_urban rail rail_electric rail_fast ship" speed="6.48" length="9.03" shape="2729.50,3411.58 2727.25,3412.63 2725.89,3414.14 2725.41,3416.12 2725.82,3418.57"/>
    </edge>
    <edge id=":1082819532_4" function="internal">
        <lane id=":1082819532_4_0" index="0" disallow="tram rail_urban rail rail_electric rail_fast ship" speed="8.07" length="14.20" shape="2729.50,3411.58 2725.64,3412.18 2722.50,3411.43 2720.07,3409.33 2718.36,3405.88"/>
    </edge>
    <edge id=":1082819532_5" function="internal">
        <lane id=":1082819532_5_0" index="0" disallow="tram rail_urban rail rail_electric rail_fast ship" speed="3.65" length="4.67" shape="2729.50,3411.58 2728.12,3411.16 2727.50,3410.51 2727.65,3409.63 2728.57,3408.52"/>
    </edge>
    <edge id=":1082819532_6" function="internal">
        <lane id=":1082819532_6_0" index="0" disallow="tram rail_urban rail rail_electric rail_fast ship" speed="6.59" length="9.12" shape="2721.40,3404.88 2722.50,3407.09 2724.06,3408.43 2726.08,3408.91 2728.57,3408.52"/>
    </edge>
    <edge id=":1082819532_7" function="internal">
        <lane id=":1082819532_7_0" index="0" disallow="tram rail_urban rail rail_electric rail_fast ship" speed="8.33" length="14.38" shape="2721.40,3404.88 2725.82,3418.57"/>
    </edge>
    <edge id=":1082819532_8" function="internal">
        <lane id=":1082819532_8_0" index="0" disallow="tram rail_urban rail rail_electric rail_fast ship" speed="3.65" length="4.67" shape="2721.40,3404.88 2721.01,3406.27 2720.38,3406.90 2719.49,3406.77 2718.36,3405.88"/>
    </edge>
    <edge id=":1082819534_0" function="internal">
        <lane id=":1082819534_0_0" index="0" disallow="tram rail_urban rail rail_electric rail_fast ship" speed="3.65" length="4.67" shape="2720.47,3335.13 2719.04,3334.99 2718.31,3334.48 2718.28,3333.58 2718.96,3332.31"/>
    </edge>
    <edge id=":11022884200_0" function="internal">
        <lane id=":11022884200_0_0" index="0" disallow="tram rail_urban rail rail_electric rail_fast ship" speed="27.78" length="8.81" shape="8561.96,6590.24 8561.01,6592.57 8559.65,6593.88 8558.28,6595.19 8557.34,6597.51"/>
    </edge>
    <edge id=":11022884200_1" function="internal">
        <lane id=":11022884200_1_0" index="0" disallow="tram rail_urban rail rail_electric rail_fast ship" speed="27.78" length="8.00" shape="8554.19,6596.92 8555.67,6589.06"/>
    </edge>
    <edge id=":12144950925_0" function="internal">
        <lane id=":12144950925_0_0" index="0" disallow="tram rail_urban rail rail_electric rail_fast ship" speed="13.89" length="8.03" shape="4585.08,5293.91 4577.63,5296.90"/>
    </edge>
    <edge id=":12144950925_1" function="internal">