<?xml version="1.0" encoding="UTF-8"?>
<!-- generated on 2025-12-16 13:59:47.841776 by randomTrips.py v1_5_0+0000-3a3be608d2
  options: -n karlskron.net.xml -r karlskron.trips.xml -e 3600 -p 2
-->
<routes xmlns:xsi="http://www.w3.org/2001/XMLSchema-instance" xsi:noNamespaceSchemaLocation="http://sumo.dlr.de/xsd/routes_file.xsd">
    <trip id="0" depart="0.00" from="-284278780#1" to="-969802154#0"/>
    <trip id="1" depart="2.00" from="-225712323#0" to="-33506216#0"/>
    <trip id="2" depart="4.00" from="-356743552#2" to="-93385406#7"/>
    <trip id="3" depart="6.00" from="40243973#0" to="-36999405#2"/>
    <trip id="4" depart="8.00" from="29202474#8" to="506198806#0"/>
    <trip id="5" depart="10.00" from="506195413#0" to="-28656576#1"/>
    <trip id="6" depart="12.00" from="-170350792#2" to="-20558171#1"/>
    <trip id="7" depart="14.00" from="506103455#35" to="498757889"/>
    <trip id="8" depart="16.00" from="30172976#17" to="-506195370#6"/>
    <trip id="9" depart="18.00" from="29202483#4" to="-29202488#0"/>
    <trip id="10" depart="20.00" from="-1004525407#1" to="28163029#2"/>
    <trip id="11" depart="22.00" from="-506195370#6" to="-36999405#2"/>
    <trip id="12" depart="24.00" from="1093949349#8" to="287200389#7"/>
    <trip id="13" depart="26.00" from="-32591915#4" to="33506220#0"/>
    <trip id="14" depart="28.00" from="-36999168#3" to="-36999404#11"/>
    <trip id="15" depart="30.00" from="-246543142#0" to="-23134925#23"/>
    <trip id="16" depart="32.00" from="969802160#0" to="29204869#4"/>
    <trip id="17" depart="34.00" from="469400552#2" to="29202472#9"/>
    <trip id="18" depart="36.00" from="503708667" to="-510764230"/>
    <trip id="19" depart="38.00" from="-36999168#4" to="506103455#0"/>
    <trip id="20" depart="40.00" from="-511073164" to="-498757766"/>
    <trip id="21" depart="42.00" from="170350811#0" to="-170350796#1"/>
    <trip id="22" depart="44.00" from="29202472#3" to="-506195768#27"/>
    <trip id="23" depart="46.00" from="-506103455#29" to="-113212963#14"/>
    <trip id="24" depart="48.00" from="-506214624#9" to="225712323#17"/>
    <trip id="25" depart="50.00" from="506198073#1" to="-506195370#0"/>
    <trip id="26" depart="52.00" from="506195768#2" to="506195768#22"/>
    <trip id="27" depart="54.00" from="507660758#2" to="-36999401#3"/>
    <trip id="28" depart="56.00" from="1030787523#3" to="-29204871#0"/>
    <trip id="29" depart="58.00" from="1054121806#0" to="-29202477#0"/>
    <trip id="30" depart="60.00" from="-1093949349#4" to="-28163025#1"/>
    <trip id="31" depart="62.00" from="-33506227#2" to="1030792227#4"/>
    <trip id="32" depart="64.00" from="506196083#1" to="32591932"/>
    <trip id="33" depart="66.00" from="506195768#11" to="-36999399#0"/>
    <trip id="34" depart="68.00" from="170350796#9" to="506196083#3"/>
    <trip id="35" depart="70.00" from="-505466654#2" to="-506198073#4"/>
    <trip id="36" depart="72.00" from="469400552#2" to="-36999405#4"/>
    <trip id="37" depart="74.00" from="-28656537#9" to="-541882908#0"/>
    <trip id="38" depart="76.00" from="-113212963#14" to="-29128179#1"/>
    <trip id="39" depart="78.00" from="-505466680#1" to="-49132053#1"/>
    <trip id="40" depart="80.00" from="505466680#0" to="-28656537#16"/>
    <trip id="41" depart="82.00" from="-29202472#8" to="29204868#2"/>
    <trip id="42" depart="84.00" from="29202474#14" to="170350796#7"/>
    <trip id="43" depart="86.00" from="36999405#6" to="28656537#5"/>
    <trip id="44" depart="88.00" from="-511073165#4" to="23134911#24"/>
    <trip id="45" depart="90.00" from="-479754040#3" to="28656537#13"/>
    <trip id="46" depart="92.00" from="284278784#2" to="-1054121858#0"/>
    <trip id="47" depart="94.00" from="506103455#29" to="-23134823#1"/>
    <trip id="48" depart="96.00" from="23134925#30" to="29202473#4"/>
    <trip id="49" depart="98.00" from="-28656576#7" to="-506214624#1"/>
    <trip id="50" depart="100.00" from="506195768#33" to="-503708662#1"/>
    <trip id="51" depart="102.00" from="-23134911#7" to="29202484#5"/>
    <trip id="52" depart="104.00" from="506214623#0" to="-506198146#1"/>
    <trip id="53" depart="106.00" from="-1054121858#1" to="23134911#18"/>
    <trip id="54" depart="108.00" from="-506103455#18" to="32591714#1"/>
    <trip id="55" depart="110.00" from="519215589#0" to="37048522"/>
    <trip id="56" depart="112.00" from="-469400552#9" to="-36999405#7"/>
    <trip id="57" depart="114.00" from="-29202479#3" to="20558605#2"/>
    <trip id="58" depart="116.00" from="507660758#2" to="1004525407#3"/>
    <trip id="59" depart="118.00" from="-32591915#7" to="29205020#1"/>
    <trip id="60" depart="120.00" from="-506195768#25" to="-506195768#21"/>
    <trip id="61" depart="122.00" from="29202476#1" to="23134925#3"/>
    <trip id="62" depart="124.00" from="32591714#5" to="-1435178678#0"/>
    <trip id="63" depart="126.00" from="-29204869#3" to="-395147236#3"/>
    <trip id="64" depart="128.00" from="170350796#5" to="-93385406#8"/>
    <trip id="65" depart="130.00" from="29202473#5" to="29202485"/>
    <trip id="66" depart="132.00" from="-29202488#8" to="36999404#4"/>
    <trip id="67" depart="134.00" from="-506103455#36" to="284278786#2"/>
    <trip id="68" depart="136.00" from="294421532#0" to="-30172976#17"/>
    <trip id="69" depart="138.00" from="-49132053#8" to="-20558605#0"/>
    <trip id="70" depart="140.00" from="506105096#1" to="-36998750"/>
    <trip id="71" depart="142.00" from="-36999399#3" to="-32591714#0"/>
    <trip id="72" depart="144.00" from="-510764231#2" to="479754040#1"/>
    <trip id="73" depart="146.00" from="506103455#33" to="170350792#0"/>
    <trip id="74" depart="148.00" from="-25794371" to="-1186879918"/>
    <trip id="75" depart="150.00" from="-28163033#2" to="284278786#2"/>
    <trip id="76" depart="152.00" from="-37201765" to="-506195768#16"/>
    <trip id="77" depart="154.00" from="-93385416#1" to="-356743552#1"/>
    <trip id="78" depart="156.00" from="506103455#34" to="506214624#13"/>
    <trip id="79" depart="158.00" from="-1162859906" to="-29204872#7"/>
    <trip id="80" depart="160.00" from="32591926#0" to="-395147234#0"/>
    <trip id="81" depart="162.00" from="-29202474#4" to="-29202488#3"/>
    <trip id="82" depart="164.00" from="23134925#24" to="60201753#20"/>
    <trip id="83" depart="166.00" from="29202475#2" to="-1030787523#0"/>
    <trip id="84" depart="168.00" from="541882860#1" to="353432035#11"/>
    <trip id="85" depart="170.00" from="-29204872#1" to="36999403#0"/>
    <trip id="86" depart="172.00" from="32591915#1" to="-48398020#1"/>
    <trip id="87" depart="174.00" from="36999401#3" to="-492378103#0"/>
    <trip id="88" depart="176.00" from="-506195768#36" to="-507660758#1"/>
    <trip id="89" depart="178.00" from="519215599#2" to="541882860#2"/>
    <trip id="90" depart="180.00" from="29202484#2" to="-225712323#15"/>
    <trip id="91" depart="182.00" from="1004525404#1" to="49132053#10"/>
    <trip id="92" depart="184.00" from="541882908#1" to="170350793#2"/>
    <trip id="93" depart="186.00" from="-23134911#7" to="40243973#1"/>
    <trip id="94" depart="188.00" from="29202483#2" to="-28656576#17"/>
    <trip id="95" depart="190.00" from="-36999404#3" to="28163029#0"/>
    <trip id="96" depart="192.00" from="113212963#15" to="-32591714#5"/>
    <trip id="97" depart="194.00" from="-41223969#5" to="-519215589#0"/>
    <trip id="98" depart="196.00" from="492378108#3" to="-353432035#8"/>
    <trip id="99" depart="198.00" from="284278780#0" to="-1162859906"/>
    <trip id="100" depart="200.00" from="-33773638#5" to="29202484#6"/>
    <trip id="101" depart="202.00" from="-506195768#31" to="-29202473#3"/>
    <trip id="102" depart="204.00" from="1030787517" to="469400552#4"/>
    <trip id="103" depart="206.00" from="173147394#2" to="-170350796#5"/>
    <trip id="104" depart="208.00" from="-33506225#4" to="-29202476#0"/>
    <trip id="105" depart="210.00" from="-492374835" to="-36999404#6"/>
    <trip id="106" depart="212.00" from="-36999168#8" to="356743552#0"/>
    <trip id="107" depart="214.00" from="-33506220#2" to="-32591475#0"/>
    <trip id="108" depart="216.00" from="23134911#15" to="506103455#33"/>
    <trip id="109" depart="218.00" from="506195768#25" to="503708669#1"/>
    <trip id="110" depart="220.00" from="506195768#1" to="23134925#34"/>
    <trip id="111" depart="222.00" from="-36999405#1" to="-23134925#12"/>
    <trip id="112" depart="224.00" from="-225712323#17" to="32591915#3"/>
    <trip id="113" depart="226.00" from="33773638#15" to="284278784#2"/>
    <trip id="114" depart="228.00" from="-506195768#29" to="29202474#12"/>
    <trip id="115" depart="230.00" from="-506214624#16" to="32591947#3"/>
    <trip id="116" depart="232.00" from="-93385413" to="-32591714#5"/>
    <trip id="117" depart="234.00" from="395147236#3" to="36999405#9"/>
    <trip id="118" depart="236.00" from="-41223969#5" to="506103455#6"/>
    <trip id="119" depart="238.00" from="-60201753#2" to="702057551#1"/>
    <trip id="120" depart="240.00" from="-93385419" to="506198073#5"/>
    <trip id="121" depart="242.00" from="32591475#3" to="469400552#12"/>
    <trip id="122" depart="244.00" from="-29202472#9" to="-29204276#1"/>
    <trip id="123" depart="246.00" from="-20558937#1" to="541882860#2"/>
    <trip id="124" depart="248.00" from="170350797#5" to="-29202473#5"/>
    <trip id="125" depart="250.00" from="-173147394#2" to="28163020#4"/>
    <trip id="126" depart="252.00" from="60201584#6" to="60201753#3"/>
    <trip id="127" depart="254.00" from="36999397#2" to="-506198073#6"/>
    <trip id="128" depart="256.00" from="32591947#0" to="506103455#13"/>
    <trip id="129" depart="258.00" from="506196084#7" to="29204278"/>
    <trip id="130" depart="260.00" from="-29204872#9" to="-479754040#1"/>
    <trip id="131" depart="262.00" from="-28656576#3" to="93385416#1"/>
    <trip id="132" depart="264.00" from="-506196084#1" to="29202472#8"/>
    <trip id="133" depart="266.00" from="-113212963#1" to="492378103#8"/>
    <trip id="134" depart="268.00" from="506195411#0" to="-511073165#10"/>
    <trip id="135" depart="270.00" from="-506103455#7" to="-29204871#4"/>
    <trip id="136" depart="272.00" from="170350811#0" to="-395147236#0"/>
    <trip id="137" depart="274.00" from="60201584#5" to="-28656537#21"/>
    <trip id="138" depart="276.00" from="506198073#4" to="23134925#3"/>
    <trip id="139" depart="278.00" from="-506195768#19" to="29202484#6"/>
    <trip id="140" depart="280.00" from="225712323#5" to="492378108#2"/>
    <trip id="141" depart="282.00" from="48398020#5" to="29204872#3"/>
    <trip id="142" depart="284.00" from="-28656537#9" to="23134925#18"/>
    <trip id="143" depart="286.00" from="-32591947#0" to="-1030792227#4"/>
    <trip id="144" depart="288.00" from="-469400552#11" to="-23134925#15"/>
    <trip id="145" depart="290.00" from="506103455#26" to="23134911#21"/>
    <trip id="146" depart="292.00" from="-506103455#18" to="-506195768#8"/>
    <trip id="147" depart="294.00" from="541882908#1" to="-978570076"/>
    <trip id="148" depart="296.00" from="541882860#1" to="506103455#5"/>
    <trip id="149" depart="298.00" from="20558171#7" to="23134925#29"/>
    <trip id="150" depart="300.00" from="23134911#21" to="-32591926#8"/>
    <trip id="151" depart="302.00" from="29202474#14" to="-20558171#6"/>
    <trip id="152" depart="304.00" from="969802160#1" to="29128179#1"/>
    <trip id="153" depart="306.00" from="506214624#8" to="170350796#6"/>
    <trip id="154" depart="308.00" from="-36999401#2" to="-1054121858#1"/>
    <trip id="155" depart="310.00" from="29202480#4" to="32591692#1"/>
    <trip id="156" depart="312.00" from="60201753#15" to="-23134925#30"/>
    <trip id="157" depart="314.00" from="-506195768#22" to="-32591926#6"/>
    <trip id="158" depart="316.00" from="-506214624#9" to="-1093949349#3"/>
    <trip id="159" depart="318.00" from="-113212963#10" to="-36999404#9"/>
    <trip id="160" depart="320.00" from="-113212963#2" to="36999405#8"/>
    <trip id="161" depart="322.00" from="702080290#1" to="225712323#8"/>
    <trip id="162" depart="324.00" from="506195411#1" to="506195768#37"/>
    <trip id="163" depart="326.00" from="-60201584#4" to="1030787518"/>
    <trip id="164" depart="328.00" from="-511073180" to="-28656537#19"/>
    <trip id="165" depart="330.00" from="36999404#7" to="33773638#8"/>
    <trip id="166" depart="332.00" from="-23134911#13" to="41223969#7"/>
    <trip id="167" depart="334.00" from="-28163025#0" to="506214624#16"/>
    <trip id="168" depart="336.00" from="23134911#29" to="-225712323#11"/>
    <trip id="169" depart="338.00" from="-29202478#1" to="225712323#0"/>
    <trip id="170" depart="340.00" from="225712323#10" to="29202474#13"/>
    <trip id="171" depart="342.00" from="-36999403#2" to="-36999404#1"/>
    <trip id="172" depart="344.00" from="-506195411#2" to="-23134925#8"/>
    <trip id="173" depart="346.00" from="36999404#2" to="-287200389#0"/>
    <trip id="174" depart="348.00" from="-36999168#8" to="29202472#1"/>
    <trip id="175" depart="350.00" from="32591915#7" to="29204868#0"/>
    <trip id="176" depart="352.00" from="-506214624#15" to="-511073143"/>
    <trip id="177" depart="354.00" from="-492378099" to="-23134911#5"/>
    <trip id="178" depart="356.00" from="-506103455#35" to="23134925#2"/>
    <trip id="179" depart="358.00" from="36999404#4" to="492378111#0"/>
    <trip id="180" depart="360.00" from="-32591915#2" to="-28656576#17"/>
    <trip id="181" depart="362.00" from="29202476#1" to="23134823#3"/>
    <trip id="182" depart="364.00" from="-60201753#8" to="29204868#3"/>
    <trip id="183" depart="366.00" from="-60201753#6" to="505466656#1"/>
    <trip id="184" depart="368.00" from="49132053#0" to="32591714#3"/>
    <trip id="185" depart="370.00" from="-1054121858#1" to="36999399#2"/>
    <trip id="186" depart="372.00" from="-506196084#0" to="-492378111#1"/>
    <trip id="187" depart="374.00" from="-511073165#13" to="355618217"/>
    <trip id="188" depart="376.00" from="-32591714#4" to="-28656576#12"/>
    <trip id="189" depart="378.00" from="-28656537#8" to="29202474#3"/>
    <trip id="190" depart="380.00" from="28656537#0" to="33773638#5"/>
    <trip id="191" depart="382.00" from="29202484#5" to="28163033#4"/>
    <trip id="192" depart="384.00" from="1004525398#0" to="-36999396#1"/>
    <trip id="193" depart="386.00" from="-29202488#5" to="33506220#1"/>
    <trip id="194" depart="388.00" from="-1093949349#8" to="-113212963#13"/>
    <trip id="195" depart="390.00" from="-503708669#3" to="-1004525407#1"/>
    <trip id="196" depart="392.00" from="-353432035#1" to="-29204869#4"/>
    <trip id="197" depart="394.00" from="505466651#0" to="506103455#19"/>
    <trip id="198" depart="396.00" from="28656576#12" to="36999403#2"/>
    <trip id="199" depart="398.00" from="506209179" to="113212963#11"/>
    <trip id="200" depart="400.00" from="23134925#0" to="506214624#15"/>
    <trip id="201" depart="402.00" from="30172976#13" to="519215599#0"/>
    <trip id="202" depart="404.00" from="-60201753#15" to="-29202473#5"/>
    <trip id="203" depart="406.00" from="-36999168#3" to="-33773638#15"/>
    <trip id="204" depart="408.00" from="-28656576#7" to="28163033#5"/>
    <trip id="205" depart="410.00" from="-113212963#5" to="-23134925#0"/>
    <trip id="206" depart="412.00" from="30172976#9" to="-36999403#1"/>
    <trip id="207" depart="414.00" from="-170350793#5" to="-294419728"/>
    <trip id="208" depart="416.00" from="-23134925#8" to="506198144#1"/>
    <trip id="209" depart="418.00" from="-33506222" to="36999170#0"/>
    <trip id="210" depart="420.00" from="-1030792226" to="-506195768#26"/>
    <trip id="211" depart="422.00" from="-506195768#16" to="33506227#5"/>
    <trip id="212" depart="424.00" from="506198141" to="-29202476#0"/>
    <trip id="213" depart="426.00" from="-37201766" to="506198073#6"/>
    <trip id="214" depart="428.00" from="-60201753#21" to="284278786#2"/>
    <trip id="215" depart="430.00" from="492378108#1" to="511073165#1"/>
    <trip id="216" depart="432.00" from="-395147233#2" to="469400552#9"/>
    <trip id="217" depart="434.00" from="-395147235#1" to="-29202475#5"/>
    <trip id="218" depart="436.00" from="-20558171#2" to="506103455#18"/>
    <trip id="219" depart="438.00" from="-284278784#3" to="-33773638#11"/>
    <trip id="220" depart="440.00" from="32591915#8" to="33506226#0"/>
    <trip id="221" depart="442.00" from="-36999406#2" to="395147236#1"/>
    <trip id="222" depart="444.00" from="287200393#1" to="33506227#4"/>
    <trip id="223" depart="446.00" from="-225712323#16" to="506196084#4"/>
    <trip id="224" depart="448.00" from="-287200393#1" to="23134925#5"/>
    <trip id="225" depart="450.00" from="-113212963#6" to="-23134911#26"/>
    <trip id="226" depart="452.00" from="29202481#2" to="-506214624#3"/>
    <trip id="227" depart="454.00" from="506198806#1" to="28656576#0"/>
    <trip id="228" depart="456.00" from="-60201753#10" to="-28656537#10"/>
    <trip id="229" depart="458.00" from="33506227#5" to="-1054121806#5"/>
    <trip id="230" depart="460.00" from="36999405#0" to="-469400552#11"/>
    <trip id="231" depart="462.00" from="-891902971#0" to="33773638#4"/>
    <trip id="232" depart="464.00" from="-1030787523#1" to="-29204869#2"/>
    <trip id="233" depart="466.00" from="-29202478#1" to="353432035#7"/>
    <trip id="234" depart="468.00" from="-29202484#5" to="23134925#27"/>
    <trip id="235" depart="470.00" from="-33506216#3" to="30172976#13"/>
    <trip id="236" depart="472.00" from="-170350792#3" to="-287200393#1"/>
    <trip id="237" depart="474.00" from="506195768#34" to="-492378108#4"/>
    <trip id="238" depart="476.00" from="-506195768#33" to="29202474#7"/>
    <trip id="239" depart="478.00" from="-506103455#11" to="-510764285#3"/>
    <trip id="240" depart="480.00" from="-36999168#2" to="-891902971#0"/>
    <trip id="241" depart="482.00" from="60201753#22" to="284278786#2"/>
    <trip id="242" depart="484.00" from="246543144#1" to="-170350793#1"/>
    <trip id="243" depart="486.00" from="32591475#3" to="-33506216#0"/>
    <trip id="244" depart="488.00" from="541882908#2" to="29204873#0"/>
    <trip id="245" depart="490.00" from="-506214781#1" to="-492378103#10"/>
    <trip id="246" depart="492.00" from="48398020#4" to="60201753#3"/>
    <trip id="247" depart="494.00" from="-36999406#3" to="170350811#2"/>
    <trip id="248" depart="496.00" from="-29202472#9" to="33506227#5"/>
    <trip id="249" depart="498.00" from="511073176#1" to="506214624#10"/>
    <trip id="250" depart="500.00" from="89479587" to="29202479#4"/>
    <trip id="251" depart="502.00" from="-1030798408#0" to="-36999397#0"/>
    <trip id="252" depart="504.00" from="-36999403#1" to="506103455#27"/>
    <trip id="253" depart="506.00" from="-28656576#10" to="113212963#12"/>
    <trip id="254" depart="508.00" from="60201753#9" to="-36999405#5"/>
    <trip id="255" depart="510.00" from="28163033#3" to="-29202474#10"/>
    <trip id="256" depart="512.00" from="510764231#3" to="-23134911#30"/>
    <trip id="257" depart="514.00" from="-29202483#2" to="395147236#1"/>
    <trip id="258" depart="516.00" from="-48398020#0" to="29202483#3"/>
    <trip id="259" depart="518.00" from="40243973#1" to="-60201753#8"/>
    <trip id="260" depart="520.00" from="-28656576#3" to="29202474#0"/>
    <trip id="261" depart="522.00" from="-29202476#0" to="-1210514971#0"/>
    <trip id="262" depart="524.00" from="-32591475#0" to="501348181"/>
    <trip id="263" depart="526.00" from="506198806#0" to="-33773638#4"/>
    <trip id="264" depart="528.00" from="60201753#20" to="-28656537#18"/>
    <trip id="265" depart="530.00" from="-93385419" to="41223969#2"/>
    <trip id="266" depart="532.00" from="1004525406" to="507660758#6"/>
    <trip id="267" depart="534.00" from="93385406#7" to="-23134925#24"/>
    <trip id="268" depart="536.00" from="395147234#0" to="36999397#1"/>
    <trip id="269" depart="538.00" from="1030792227#3" to="-356743552#0"/>
    <trip id="270" depart="540.00" from="170350797#5" to="170350797#4"/>
    <trip id="271" depart="542.00" from="-36999406#0" to="30172976#0"/>
    <trip id="272" depart="544.00" from="225712323#14" to="28656537#15"/>
    <trip id="273" depart="546.00" from="30172976#11" to="-506195768#24"/>
    <trip id="274" depart="548.00" from="32592062" to="859855862"/>
    <trip id="275" depart="550.00" from="-355618217" to="36999170#2"/>
    <trip id="276" depart="552.00" from="-33773638#11" to="-33506227#2"/>
    <trip id="277" depart="554.00" from="-29204873#1" to="-978570076"/>
    <trip id="278" depart="556.00" from="32591867" to="395147233#2"/>
    <trip id="279" depart="558.00" from="-29202474#0" to="-36999403#2"/>
    <trip id="280" depart="560.00" from="507660758#2" to="-506195768#11"/>
    <trip id="281" depart="562.00" from="541882908#1" to="29202488#5"/>
    <trip id="282" depart="564.00" from="-506103455#21" to="-60201753#13"/>
    <trip id="283" depart="566.00" from="23134925#25" to="23134911#9"/>
    <trip id="284" depart="568.00" from="-29204869#4" to="506195411#2"/>
    <trip id="285" depart="570.00" from="23134925#8" to="29205020#0"/>
    <trip id="286" depart="572.00" from="-36999404#12" to="-506103455#6"/>
    <trip id="287" depart="574.00" from="33506225#2" to="23134925#25"/>
    <trip id="288" depart="576.00" from="-170350796#1" to="-506195768#11"/>
    <trip id="289" depart="578.00" from="-36999397#1" to="23134925#11"/>
    <trip id="290" depart="580.00" from="-23134925#21" to="-32591947#3"/>
    <trip id="291" depart="582.00" from="60201753#13" to="29202484#1"/>
    <trip id="292" depart="584.00" from="-287200389#5" to="506195768#11"/>
    <trip id="293" depart="586.00" from="33506222" to="506103455#7"/>
    <trip id="294" depart="588.00" from="-29204868#2" to="-23134823#3"/>
    <trip id="295" depart="590.00" from="-173147394#1" to="-29204872#5"/>
    <trip id="296" depart="592.00" from="-36999405#2" to="60201753#22"/>
    <trip id="297" depart="594.00" from="-1030792227#2" to="469400552#0"/>
    <trip id="298" depart="596.00" from="-28656576#3" to="284278784#3"/>
    <trip id="299" depart="598.00" from="-29202482#2" to="-506103455#21"/>
    <trip id="300" depart="600.00" from="511073165#6" to="32591692#1"/>
    <trip id="301" depart="602.00" from="-1054121806#3" to="23134911#5"/>
    <trip id="302" depart="604.00" from="-29202475#0" to="36999405#7"/>
    <trip id="303" depart="606.00" from="-33506227#5" to="20558171#7"/>
    <trip id="304" depart="608.00" from="-28656537#21" to="-1210514971#1"/>
    <trip id="305" depart="610.00" from="-702057551#1" to="510764230"/>
    <trip id="306" depart="612.00" from="29204872#10" to="23134925#17"/>
    <trip id="307" depart="614.00" from="-1162859909" to="-506195768#10"/>
    <trip id="308" depart="616.00" from="29202479#2" to="-23134911#10"/>
    <trip id="309" depart="618.00" from="-506198146#0" to="41223969#10"/>
    <trip id="310" depart="620.00" from="29202474#13" to="506103455#14"/>
    <trip id="311" depart="622.00" from="-29202473#6" to="505466651#0"/>
    <trip id="312" depart="624.00" from="29202488#7" to="-20558171#3"/>
    <trip id="313" depart="626.00" from="29202481#3" to="-33773638#11"/>
    <trip id="314" depart="628.00" from="29204872#11" to="-23134925#7"/>
    <trip id="315" depart="630.00" from="506209179" to="23134925#25"/>
    <trip id="316" depart="632.00" from="30172976#17" to="28656537#19"/>
    <trip id="317" depart="634.00" from="-36999405#2" to="29202474#1"/>
    <trip id="318" depart="636.00" from="-41223969#11" to="29204868#1"/>
    <trip id="319" depart="638.00" from="1004525398#0" to="-444556826"/>
    <trip id="320" depart="640.00" from="-506198073#0" to="33773638#0"/>
    <trip id="321" depart="642.00" from="506214624#6" to="-29202484#6"/>
    <trip id="322" depart="644.00" from="225712323#11" to="506195768#21"/>
    <trip id="323" depart="646.00" from="294421532#0" to="-29202473#2"/>
    <trip id="324" depart="648.00" from="511073165#1" to="33506227#3"/>
    <trip id="325" depart="650.00" from="-506214623#3" to="395147235#1"/>
    <trip id="326" depart="652.00" from="-225712323#8" to="29202472#0"/>
    <trip id="327" depart="654.00" from="29204871#6" to="93385406#7"/>
    <trip id="328" depart="656.00" from="-479754040#0" to="1030787507"/>
    <trip id="329" depart="658.00" from="356297623#0" to="506195413#0"/>
    <trip id="330" depart="660.00" from="28656554#2" to="-1093949349#6"/>
    <trip id="331" depart="662.00" from="32591926#2" to="28656537#20"/>
    <trip id="332" depart="664.00" from="-1004525398#1" to="-60201584#0"/>
    <trip id="333" depart="666.00" from="503708664#1" to="36999055"/>
    <trip id="334" depart="668.00" from="-506103455#34" to="-36999406#1"/>
    <trip id="335" depart="670.00" from="23134925#25" to="-29202478#2"/>
    <trip id="336" depart="672.00" from="-29202474#13" to="-33506220#0"/>
    <trip id="337" depart="674.00" from="-29202474#5" to="-60201753#10"/>
    <trip id="338" depart="676.00" from="-41223969#7" to="-511073165#12"/>
    <trip id="339" depart="678.00" from="-506195768#30" to="506195768#11"/>
    <trip id="340" depart="680.00" from="-32591475#3" to="492374835"/>
    <trip id="341" depart="682.00" from="23134925#28" to="29204639"/>
    <trip id="342" depart="684.00" from="702057551#0" to="-506196084#2"/>
    <trip id="343" depart="686.00" from="36999405#0" to="-23134911#11"/>
    <trip id="344" depart="688.00" from="-36999405#6" to="29204872#5"/>
    <trip id="345" depart="690.00" from="-506196083#2" to="-541882860#1"/>
    <trip id="346" depart="692.00" from="506196084#2" to="60201753#16"/>
    <trip id="347" depart="694.00" from="-506103455#3" to="39293939"/>
    <trip id="348" depart="696.00" from="-36999055" to="-41223969#2"/>
    <trip id="349" depart="698.00" from="-36999405#9" to="170350797#4"/>
    <trip id="350" depart="700.00" from="-29204639" to="-113212963#8"/>
    <trip id="351" depart="702.00" from="-702057551#1" to="89479587"/>
    <trip id="352" depart="704.00" from="29202488#6" to="-356743552#3"/>
    <trip id="353" depart="706.00" from="48398020#4" to="29202472#3"/>
    <trip id="354" depart="708.00" from="507660758#0" to="479754040#4"/>
    <trip id="355" depart="710.00" from="-23134925#26" to="93385406#5"/>
    <trip id="356" depart="712.00" from="-20558937#1" to="-479754040#3"/>
    <trip id="357" depart="714.00" from="-506195768#23" to="-506195411#0"/>
    <trip id="358" depart="716.00" from="-507660758#1" to="60201753#22"/>
    <trip id="359" depart="718.00" from="-1030787523#1" to="880165137"/>
    <trip id="360" depart="720.00" from="444556826" to="33773638#6"/>
    <trip id="361" depart="722.00" from="-23134911#21" to="-23134925#0"/>
    <trip id="362" depart="724.00" from="-492378108#2" to="-30172976#2"/>
    <trip id="363" depart="726.00" from="-225712323#21" to="23134925#8"/>
    <trip id="364" depart="728.00" from="60201753#18" to="-32591926#4"/>
    <trip id="365" depart="730.00" from="-36999168#3" to="-506195768#17"/>
    <trip id="366" depart="732.00" from="1004525407#2" to="891902966"/>
    <trip id="367" depart="734.00" from="29202488#6" to="-506214624#6"/>
    <trip id="368" depart="736.00" from="-29204872#6" to="60201584#4"/>
    <trip id="369" depart="738.00" from="33506226#1" to="36999170#1"/>
    <trip id="370" depart="740.00" from="-29202472#1" to="170350796#2"/>
    <trip id="371" depart="742.00" from="1454883334" to="511073165#6"/>
    <trip id="372" depart="744.00" from="-506198073#3" to="-507714988"/>
    <trip id="373" depart="746.00" from="-29202477#0" to="-33773638#13"/>
    <trip id="374" depart="748.00" from="492378108#1" to="-492378108#4"/>
    <trip id="375" depart="750.00" from="23134911#29" to="-28656537#2"/>
    <trip id="376" depart="752.00" from="-28163033#2" to="-507660758#5"/>
    <trip id="377" depart="754.00" from="28656576#17" to="28656576#0"/>
    <trip id="378" depart="756.00" from="25794427#2" to="-29202485"/>
    <trip id="379" depart="758.00" from="-1162859908" to="29202474#6"/>
    <trip id="380" depart="760.00" from="511073143" to="-506103455#16"/>
    <trip id="381" depart="762.00" from="28163033#4" to="89479594"/>
    <trip id="382" depart="764.00" from="469400552#7" to="-29202472#3"/>
    <trip id="383" depart="766.00" from="-225712323#19" to="246543144#1"/>
    <trip id="384" depart="768.00" from="506214780" to="-29204634"/>
    <trip id="385" depart="770.00" from="93385406#1" to="-395147236#4"/>
    <trip id="386" depart="772.00" from="-23134911#15" to="33773638#1"/>
    <trip id="387" depart="774.00" from="23134925#3" to="-36999404#2"/>
    <trip id="388" depart="776.00" from="36999405#5" to="-506195768#24"/>
    <trip id="389" depart="778.00" from="-29202475#4" to="23134925#11"/>
    <trip id="390" depart="780.00" from="-32591915#2" to="-510764285#0"/>
    <trip id="391" depart="782.00" from="-36999405#6" to="-506103455#10"/>
    <trip id="392" depart="784.00" from="29202474#12" to="29202473#4"/>
    <trip id="393" depart="786.00" from="30172976#7" to="-506214623#4"/>
    <trip id="394" depart="788.00" from="60201753#20" to="-506103455#9"/>
    <trip id="395" depart="790.00" from="1054121918" to="41223969#10"/>
    <trip id="396" depart="792.00" from="-36999168#5" to="-170350797#3"/>
    <trip id="397" depart="794.00" from="-113212963#15" to="32591926#6"/>
    <trip id="398" depart="796.00" from="23134823#1" to="511073179"/>
    <trip id="399" depart="798.00" from="-36999404#4" to="-29202488#5"/>
    <trip id="400" depart="800.00" from="-225712323#4" to="-503708667"/>
    <trip id="401" depart="802.00" from="-33506220#4" to="-28656576#13"/>
    <trip id="402" depart="804.00" from="-1004525407#0" to="-506103455#1"/>
    <trip id="403" depart="806.00" from="-20558605#2" to="506196083#3"/>
    <trip id="404" depart="808.00" from="41223969#3" to="506214623#3"/>
    <trip id="405" depart="810.00" from="29202479#5" to="506198141"/>
    <trip id="406" depart="812.00" from="-506195370#0" to="506214624#7"/>